1

   Abaqus 6.14-4                                  Date 15-Oct-2017   Time 16:17:04
   For use at NTNU NORGES TEKNISK NATURVITENSKAPELIGE UNIVERSITET under license from Dassault Systemes or its subsidiary.



                         The Abaqus Software is a product of:

                           Dassault Systemes SIMULIA Corp.
                           1301 Atwood Avenue, Suite 101W
                              Johnston, RI 02919, USA
 


                   Available for internal use at NTNU NORGES TEKNISK NATURVITENSKAPELIGE UNIVERSITET. 
                   The Abaqus Online Support System is accessible
                   through the "My Support" section of the SIMULIA
                   Home Page at http://www.simulia.com.

                   Support policies for academic licenses are described
                   on the SIMULIA web site at
                   http://www.3ds.com/products/simulia/academics/
 
                          On machine DESKTOP-D5KQHRI 
                          you are authorized to run
                          Abaqus/Standard until 30-Sep-2018

                          Your site id is: 100000000001981 


 
                    For assistance or any other information you may
                    obtain contact information for your local office
                    from the world wide web at:

                      http://www.3ds.com/products/simulia/locations/

 
                * * * * * * * * * * * * * * * * * * * * * * * * * * * * * * 
                *                                                         * 
                *                   *****************                     * 
                *                   *  N O T I C E  *                     * 
                *                   *****************                     * 
                *                                                         * 
                *                                                         * 
                *                    Abaqus 6.14-4                        * 
                *                                                         * 
                *          BUILD ID: 2015_06_11-22.41.13 135079           * 
                *                                                         * 
                *                                                         * 
                *  Please make sure you are using release 6.14 manuals    * 
                *  plus the notes accompanying this release.              * 
                *                                                         * 
                *                                                         * 
                *                                                         * 
                *                                                         * 
                *                                                         * 
                *   This program may not be used for commercial purposes  * 
                *           without payment of a commercial fee.          * 
                *                                                         * 
                * * * * * * * * * * * * * * * * * * * * * * * * * * * * * * 


 



     PROCESSING PART, INSTANCE, AND ASSEMBLY INFORMATION
   *******************************************************


     END PROCESSING PART, INSTANCE, AND ASSEMBLY INFORMATION
   ***********************************************************




     OPTIONS BEING PROCESSED
   ***************************


  *Heading
  *Node
  *Element, type=COH3D8
  *Element, type=C3D6
  *Element, type=COH3D8
  *Element, type=C3D6
  *Element, type=COH3D8
  *Element, type=C3D6
  *Element, type=COH3D8
  *Element, type=C3D6
  *Element, type=COH3D8
  *Element, type=C3D6
  *Element, type=C3D8
  *Element, type=COH3D8
  *Element, type=C3D6
  *Element, type=COH3D8
  *Element, type=C3D6
  *Element, type=COH3D8
  *Element, type=C3D6
  *Element, type=COH3D8
  *Element, type=C3D6
  *Element, type=COH3D8
  *Element, type=C3D6
  *Element, type=COH3D8
  *Element, type=C3D6
  *Element, type=COH3D8
  *Element, type=C3D6
  *Element, type=COH3D8
  *Element, type=C3D6
  *Element, type=COH3D8
  *Element, type=C3D6
  *Element, type=COH3D8
  *Element, type=C3D6
  *Element, type=COH3D8
  *Element, type=C3D6
  *Element, type=COH3D8
  *Element, type=C3D6
  *Element, type=COH3D8
  *Element, type=C3D6
  *Element, type=COH3D8
  *Element, type=C3D6
  *Element, type=COH3D8
  *Element, type=C3D6
  *Element, type=COH3D8
  *Element, type=C3D6
  *Element, type=COH3D8
  *Element, type=C3D6
  *Element, type=COH3D8
  *Element, type=C3D6
  *Nset, nset=ASSEMBLY_PART-1-1_SET-1
  *Nset, nset=ASSEMBLY_PART-1-1_SET-2
  *Nset, nset=ASSEMBLY_PART-1-1_SET-3
  *Nset, nset=ASSEMBLY_PART-1-1__PICKEDSET121
  *Elset, elset=ASSEMBLY_PART-1-1_SET-1
  *Elset, elset=ASSEMBLY_PART-1-1_SET-2
  *Elset, elset=ASSEMBLY_PART-1-1_SET-3
  *Elset, elset=ASSEMBLY_PART-1-1__I3
  *Elset, elset=ASSEMBLY_PART-1-1__I4
  *Elset, elset=ASSEMBLY_PART-1-1__PICKEDSET121
  *Node
  *Nset, nset=ASSEMBLY_NUM1000PART-1-1
  *Nset, nset=ASSEMBLY_NUM1001PART-1-1
  *Nset, nset=ASSEMBLY_NUM1001RVE-3D-1
  *Nset, nset=ASSEMBLY_NUM1002PART-1-1
  *Nset, nset=ASSEMBLY_NUM1002RVE-3D-1
  *Nset, nset=ASSEMBLY_NUM1003PART-1-1
  *Nset, nset=ASSEMBLY_NUM1003RVE-3D-1
  *Nset, nset=ASSEMBLY_NUM1004PART-1-1
  *Nset, nset=ASSEMBLY_NUM1004RVE-3D-1
  *Nset, nset=ASSEMBLY_NUM1005PART-1-1
  *Nset, nset=ASSEMBLY_NUM1005RVE-3D-1
  *Nset, nset=ASSEMBLY_NUM1006PART-1-1
  *Nset, nset=ASSEMBLY_NUM1006RVE-3D-1
  *Nset, nset=ASSEMBLY_NUM1007PART-1-1
  *Nset, nset=ASSEMBLY_NUM1007RVE-3D-1
  *Nset, nset=ASSEMBLY_NUM1008PART-1-1
  *Nset, nset=ASSEMBLY_NUM1008RVE-3D-1
  *Nset, nset=ASSEMBLY_NUM1009PART-1-1
  *Nset, nset=ASSEMBLY_NUM1009RVE-3D-1
  *Nset, nset=ASSEMBLY_NUM100PART-1-1
  *Nset, nset=ASSEMBLY_NUM1010PART-1-1
  *Nset, nset=ASSEMBLY_NUM1010RVE-3D-1
  *Nset, nset=ASSEMBLY_NUM1011PART-1-1
  *Nset, nset=ASSEMBLY_NUM1011RVE-3D-1
  *Nset, nset=ASSEMBLY_NUM1012PART-1-1
  *Nset, nset=ASSEMBLY_NUM1012RVE-3D-1
  *Nset, nset=ASSEMBLY_NUM1013PART-1-1
  *Nset, nset=ASSEMBLY_NUM1013RVE-3D-1
  *Nset, nset=ASSEMBLY_NUM1014PART-1-1
  *Nset, nset=ASSEMBLY_NUM1014RVE-3D-1
  *Nset, nset=ASSEMBLY_NUM1015PART-1-1
  *Nset, nset=ASSEMBLY_NUM1015RVE-3D-1
  *Nset, nset=ASSEMBLY_NUM1016PART-1-1
  *Nset, nset=ASSEMBLY_NUM1016RVE-3D-1
  *Nset, nset=ASSEMBLY_NUM1017PART-1-1
  *Nset, nset=ASSEMBLY_NUM1017RVE-3D-1
  *Nset, nset=ASSEMBLY_NUM1018PART-1-1
  *Nset, nset=ASSEMBLY_NUM1018RVE-3D-1
  *Nset, nset=ASSEMBLY_NUM1019PART-1-1
  *Nset, nset=ASSEMBLY_NUM1019RVE-3D-1
  *Nset, nset=ASSEMBLY_NUM101PART-1-1
  *Nset, nset=ASSEMBLY_NUM1020PART-1-1
  *Nset, nset=ASSEMBLY_NUM1020RVE-3D-1
  *Nset, nset=ASSEMBLY_NUM1021PART-1-1
  *Nset, nset=ASSEMBLY_NUM1021RVE-3D-1
  *Nset, nset=ASSEMBLY_NUM1022PART-1-1
  *Nset, nset=ASSEMBLY_NUM1022RVE-3D-1
  *Nset, nset=ASSEMBLY_NUM1023PART-1-1
  *Nset, nset=ASSEMBLY_NUM1023RVE-3D-1
  *Nset, nset=ASSEMBLY_NUM1024PART-1-1
  *Nset, nset=ASSEMBLY_NUM1024RVE-3D-1
  *Nset, nset=ASSEMBLY_NUM1025PART-1-1
  *Nset, nset=ASSEMBLY_NUM1025RVE-3D-1
  *Nset, nset=ASSEMBLY_NUM1026PART-1-1
  *Nset, nset=ASSEMBLY_NUM1026RVE-3D-1
  *Nset, nset=ASSEMBLY_NUM1027PART-1-1
  *Nset, nset=ASSEMBLY_NUM1027RVE-3D-1
  *Nset, nset=ASSEMBLY_NUM1028PART-1-1
  *Nset, nset=ASSEMBLY_NUM1028RVE-3D-1
  *Nset, nset=ASSEMBLY_NUM1029PART-1-1
  *Nset, nset=ASSEMBLY_NUM1029RVE-3D-1
  *Nset, nset=ASSEMBLY_NUM102PART-1-1
  *Nset, nset=ASSEMBLY_NUM102RVE-3D-1
  *Nset, nset=ASSEMBLY_NUM1030PART-1-1
  *Nset, nset=ASSEMBLY_NUM1030RVE-3D-1
  *Nset, nset=ASSEMBLY_NUM1031PART-1-1
  *Nset, nset=ASSEMBLY_NUM1031RVE-3D-1
  *Nset, nset=ASSEMBLY_NUM1032PART-1-1
  *Nset, nset=ASSEMBLY_NUM1032RVE-3D-1
  *Nset, nset=ASSEMBLY_NUM1033PART-1-1
  *Nset, nset=ASSEMBLY_NUM1033RVE-3D-1
  *Nset, nset=ASSEMBLY_NUM1034PART-1-1
  *Nset, nset=ASSEMBLY_NUM1034RVE-3D-1
  *Nset, nset=ASSEMBLY_NUM1035PART-1-1
  *Nset, nset=ASSEMBLY_NUM1035RVE-3D-1
  *Nset, nset=ASSEMBLY_NUM1036PART-1-1
  *Nset, nset=ASSEMBLY_NUM1036RVE-3D-1
  *Nset, nset=ASSEMBLY_NUM1037PART-1-1
  *Nset, nset=ASSEMBLY_NUM1038PART-1-1
  *Nset, nset=ASSEMBLY_NUM1039PART-1-1
  *Nset, nset=ASSEMBLY_NUM103PART-1-1
  *Nset, nset=ASSEMBLY_NUM103RVE-3D-1
  *Nset, nset=ASSEMBLY_NUM1040PART-1-1
  *Nset, nset=ASSEMBLY_NUM1041PART-1-1
  *Nset, nset=ASSEMBLY_NUM1041RVE-3D-1
  *Nset, nset=ASSEMBLY_NUM1042PART-1-1
  *Nset, nset=ASSEMBLY_NUM1042RVE-3D-1
  *Nset, nset=ASSEMBLY_NUM1043PART-1-1
  *Nset, nset=ASSEMBLY_NUM1043RVE-3D-1
  *Nset, nset=ASSEMBLY_NUM1044PART-1-1
  *Nset, nset=ASSEMBLY_NUM1044RVE-3D-1
  *Nset, nset=ASSEMBLY_NUM1045PART-1-1
  *Nset, nset=ASSEMBLY_NUM1046PART-1-1
  *Nset, nset=ASSEMBLY_NUM1047PART-1-1
  *Nset, nset=ASSEMBLY_NUM1048PART-1-1
  *Nset, nset=ASSEMBLY_NUM1049PART-1-1
  *Nset, nset=ASSEMBLY_NUM104PART-1-1
  *Nset, nset=ASSEMBLY_NUM104RVE-3D-1
  *Nset, nset=ASSEMBLY_NUM1050PART-1-1
  *Nset, nset=ASSEMBLY_NUM1051PART-1-1
  *Nset, nset=ASSEMBLY_NUM1052PART-1-1
  *Nset, nset=ASSEMBLY_NUM1053PART-1-1
  *Nset, nset=ASSEMBLY_NUM1053RVE-3D-1
  *Nset, nset=ASSEMBLY_NUM1054PART-1-1
  *Nset, nset=ASSEMBLY_NUM1054RVE-3D-1
  *Nset, nset=ASSEMBLY_NUM1055PART-1-1
  *Nset, nset=ASSEMBLY_NUM1056PART-1-1
  *Nset, nset=ASSEMBLY_NUM1057PART-1-1
  *Nset, nset=ASSEMBLY_NUM1057RVE-3D-1
  *Nset, nset=ASSEMBLY_NUM1058PART-1-1
  *Nset, nset=ASSEMBLY_NUM1058RVE-3D-1
  *Nset, nset=ASSEMBLY_NUM1059PART-1-1
  *Nset, nset=ASSEMBLY_NUM1059RVE-3D-1
  *Nset, nset=ASSEMBLY_NUM105PART-1-1
  *Nset, nset=ASSEMBLY_NUM105RVE-3D-1
  *Nset, nset=ASSEMBLY_NUM1060PART-1-1
  *Nset, nset=ASSEMBLY_NUM1060RVE-3D-1
  *Nset, nset=ASSEMBLY_NUM1061PART-1-1
  *Nset, nset=ASSEMBLY_NUM1061RVE-3D-1
  *Nset, nset=ASSEMBLY_NUM1062PART-1-1
  *Nset, nset=ASSEMBLY_NUM1062RVE-3D-1
  *Nset, nset=ASSEMBLY_NUM1063PART-1-1
  *Nset, nset=ASSEMBLY_NUM1063RVE-3D-1
  *Nset, nset=ASSEMBLY_NUM1064PART-1-1
  *Nset, nset=ASSEMBLY_NUM1064RVE-3D-1
  *Nset, nset=ASSEMBLY_NUM1065PART-1-1
  *Nset, nset=ASSEMBLY_NUM1065RVE-3D-1
  *Nset, nset=ASSEMBLY_NUM1066PART-1-1
  *Nset, nset=ASSEMBLY_NUM1066RVE-3D-1
  *Nset, nset=ASSEMBLY_NUM1067PART-1-1
  *Nset, nset=ASSEMBLY_NUM1068PART-1-1
  *Nset, nset=ASSEMBLY_NUM1069PART-1-1
  *Nset, nset=ASSEMBLY_NUM1069RVE-3D-1
  *Nset, nset=ASSEMBLY_NUM106PART-1-1
  *Nset, nset=ASSEMBLY_NUM106RVE-3D-1
  *Nset, nset=ASSEMBLY_NUM1070PART-1-1
  *Nset, nset=ASSEMBLY_NUM1070RVE-3D-1
  *Nset, nset=ASSEMBLY_NUM1071PART-1-1
  *Nset, nset=ASSEMBLY_NUM1071RVE-3D-1
  *Nset, nset=ASSEMBLY_NUM1072PART-1-1
  *Nset, nset=ASSEMBLY_NUM1072RVE-3D-1
  *Nset, nset=ASSEMBLY_NUM1073PART-1-1
  *Nset, nset=ASSEMBLY_NUM1073RVE-3D-1
  *Nset, nset=ASSEMBLY_NUM1074PART-1-1
  *Nset, nset=ASSEMBLY_NUM1074RVE-3D-1
  *Nset, nset=ASSEMBLY_NUM1075PART-1-1
  *Nset, nset=ASSEMBLY_NUM1075RVE-3D-1
  *Nset, nset=ASSEMBLY_NUM1076PART-1-1
  *Nset, nset=ASSEMBLY_NUM1076RVE-3D-1
  *Nset, nset=ASSEMBLY_NUM1077PART-1-1
  *Nset, nset=ASSEMBLY_NUM1077RVE-3D-1
  *Nset, nset=ASSEMBLY_NUM1078PART-1-1
  *Nset, nset=ASSEMBLY_NUM1078RVE-3D-1
  *Nset, nset=ASSEMBLY_NUM1079PART-1-1
  *Nset, nset=ASSEMBLY_NUM1079RVE-3D-1
  *Nset, nset=ASSEMBLY_NUM107PART-1-1
  *Nset, nset=ASSEMBLY_NUM1080PART-1-1
  *Nset, nset=ASSEMBLY_NUM1080RVE-3D-1
  *Nset, nset=ASSEMBLY_NUM1081PART-1-1
  *Nset, nset=ASSEMBLY_NUM1081RVE-3D-1
  *Nset, nset=ASSEMBLY_NUM1082PART-1-1
  *Nset, nset=ASSEMBLY_NUM1082RVE-3D-1
  *Nset, nset=ASSEMBLY_NUM1083PART-1-1
  *Nset, nset=ASSEMBLY_NUM1083RVE-3D-1
  *Nset, nset=ASSEMBLY_NUM1084PART-1-1
  *Nset, nset=ASSEMBLY_NUM1084RVE-3D-1
  *Nset, nset=ASSEMBLY_NUM1085PART-1-1
  *Nset, nset=ASSEMBLY_NUM1085RVE-3D-1
  *Nset, nset=ASSEMBLY_NUM1086PART-1-1
  *Nset, nset=ASSEMBLY_NUM1086RVE-3D-1
  *Nset, nset=ASSEMBLY_NUM1087PART-1-1
  *Nset, nset=ASSEMBLY_NUM1087RVE-3D-1
  *Nset, nset=ASSEMBLY_NUM1088PART-1-1
  *Nset, nset=ASSEMBLY_NUM1088RVE-3D-1
  *Nset, nset=ASSEMBLY_NUM1089PART-1-1
  *Nset, nset=ASSEMBLY_NUM1089RVE-3D-1
  *Nset, nset=ASSEMBLY_NUM108PART-1-1
  *Nset, nset=ASSEMBLY_NUM1090PART-1-1
  *Nset, nset=ASSEMBLY_NUM1090RVE-3D-1
  *Nset, nset=ASSEMBLY_NUM1091PART-1-1
  *Nset, nset=ASSEMBLY_NUM1091RVE-3D-1
  *Nset, nset=ASSEMBLY_NUM1092PART-1-1
  *Nset, nset=ASSEMBLY_NUM1092RVE-3D-1
  *Nset, nset=ASSEMBLY_NUM1093PART-1-1
  *Nset, nset=ASSEMBLY_NUM1093RVE-3D-1
  *Nset, nset=ASSEMBLY_NUM1094PART-1-1
  *Nset, nset=ASSEMBLY_NUM1094RVE-3D-1
  *Nset, nset=ASSEMBLY_NUM1095PART-1-1
  *Nset, nset=ASSEMBLY_NUM1095RVE-3D-1
  *Nset, nset=ASSEMBLY_NUM1096PART-1-1
  *Nset, nset=ASSEMBLY_NUM1096RVE-3D-1
  *Nset, nset=ASSEMBLY_NUM1097PART-1-1
  *Nset, nset=ASSEMBLY_NUM1097RVE-3D-1
  *Nset, nset=ASSEMBLY_NUM1098PART-1-1
  *Nset, nset=ASSEMBLY_NUM1098RVE-3D-1
  *Nset, nset=ASSEMBLY_NUM1099PART-1-1
  *Nset, nset=ASSEMBLY_NUM1099RVE-3D-1
  *Nset, nset=ASSEMBLY_NUM109PART-1-1
  *Nset, nset=ASSEMBLY_NUM10PART-1-1
  *Nset, nset=ASSEMBLY_NUM10RVE-3D-1
  *Nset, nset=ASSEMBLY_NUM1100PART-1-1
  *Nset, nset=ASSEMBLY_NUM1100RVE-3D-1
  *Nset, nset=ASSEMBLY_NUM1101PART-1-1
  *Nset, nset=ASSEMBLY_NUM1101RVE-3D-1
  *Nset, nset=ASSEMBLY_NUM1102PART-1-1
  *Nset, nset=ASSEMBLY_NUM1102RVE-3D-1
  *Nset, nset=ASSEMBLY_NUM1103PART-1-1
  *Nset, nset=ASSEMBLY_NUM1103RVE-3D-1
  *Nset, nset=ASSEMBLY_NUM1104PART-1-1
  *Nset, nset=ASSEMBLY_NUM1104RVE-3D-1
  *Nset, nset=ASSEMBLY_NUM1105PART-1-1
  *Nset, nset=ASSEMBLY_NUM1105RVE-3D-1
  *Nset, nset=ASSEMBLY_NUM1106PART-1-1
  *Nset, nset=ASSEMBLY_NUM1106RVE-3D-1
  *Nset, nset=ASSEMBLY_NUM1107PART-1-1
  *Nset, nset=ASSEMBLY_NUM1107RVE-3D-1
  *Nset, nset=ASSEMBLY_NUM1108PART-1-1
  *Nset, nset=ASSEMBLY_NUM1108RVE-3D-1
  *Nset, nset=ASSEMBLY_NUM1109PART-1-1
  *Nset, nset=ASSEMBLY_NUM1109RVE-3D-1
  *Nset, nset=ASSEMBLY_NUM110PART-1-1
  *Nset, nset=ASSEMBLY_NUM110RVE-3D-1
  *Nset, nset=ASSEMBLY_NUM1110PART-1-1
  *Nset, nset=ASSEMBLY_NUM1110RVE-3D-1
  *Nset, nset=ASSEMBLY_NUM1111PART-1-1
  *Nset, nset=ASSEMBLY_NUM1111RVE-3D-1
  *Nset, nset=ASSEMBLY_NUM1112PART-1-1
  *Nset, nset=ASSEMBLY_NUM1112RVE-3D-1
  *Nset, nset=ASSEMBLY_NUM1113PART-1-1
  *Nset, nset=ASSEMBLY_NUM1113RVE-3D-1
  *Nset, nset=ASSEMBLY_NUM1114PART-1-1
  *Nset, nset=ASSEMBLY_NUM1114RVE-3D-1
  *Nset, nset=ASSEMBLY_NUM1115PART-1-1
  *Nset, nset=ASSEMBLY_NUM1115RVE-3D-1
  *Nset, nset=ASSEMBLY_NUM1116PART-1-1
  *Nset, nset=ASSEMBLY_NUM1116RVE-3D-1
  *Nset, nset=ASSEMBLY_NUM1117PART-1-1
  *Nset, nset=ASSEMBLY_NUM1117RVE-3D-1
  *Nset, nset=ASSEMBLY_NUM1118PART-1-1
  *Nset, nset=ASSEMBLY_NUM1118RVE-3D-1
  *Nset, nset=ASSEMBLY_NUM1119PART-1-1
  *Nset, nset=ASSEMBLY_NUM1119RVE-3D-1
  *Nset, nset=ASSEMBLY_NUM111PART-1-1
  *Nset, nset=ASSEMBLY_NUM1120PART-1-1
  *Nset, nset=ASSEMBLY_NUM1120RVE-3D-1
  *Nset, nset=ASSEMBLY_NUM1121PART-1-1
  *Nset, nset=ASSEMBLY_NUM1121RVE-3D-1
  *Nset, nset=ASSEMBLY_NUM1122PART-1-1
  *Nset, nset=ASSEMBLY_NUM1122RVE-3D-1
  *Nset, nset=ASSEMBLY_NUM1123PART-1-1
  *Nset, nset=ASSEMBLY_NUM1124PART-1-1
  *Nset, nset=ASSEMBLY_NUM1125PART-1-1
  *Nset, nset=ASSEMBLY_NUM1126PART-1-1
  *Nset, nset=ASSEMBLY_NUM1127PART-1-1
  *Nset, nset=ASSEMBLY_NUM1128PART-1-1
  *Nset, nset=ASSEMBLY_NUM1129PART-1-1
  *Nset, nset=ASSEMBLY_NUM112PART-1-1
  *Nset, nset=ASSEMBLY_NUM1130PART-1-1
  *Nset, nset=ASSEMBLY_NUM1131PART-1-1
  *Nset, nset=ASSEMBLY_NUM1132PART-1-1
  *Nset, nset=ASSEMBLY_NUM1133PART-1-1
  *Nset, nset=ASSEMBLY_NUM1134PART-1-1
  *Nset, nset=ASSEMBLY_NUM1135PART-1-1
  *Nset, nset=ASSEMBLY_NUM1136PART-1-1
  *Nset, nset=ASSEMBLY_NUM1137PART-1-1
  *Nset, nset=ASSEMBLY_NUM1138PART-1-1
  *Nset, nset=ASSEMBLY_NUM1139PART-1-1
  *Nset, nset=ASSEMBLY_NUM113PART-1-1
  *Nset, nset=ASSEMBLY_NUM113RVE-3D-1
  *Nset, nset=ASSEMBLY_NUM1140PART-1-1
  *Nset, nset=ASSEMBLY_NUM1141PART-1-1
  *Nset, nset=ASSEMBLY_NUM1142PART-1-1
  *Nset, nset=ASSEMBLY_NUM1143PART-1-1
  *Nset, nset=ASSEMBLY_NUM1144PART-1-1
  *Nset, nset=ASSEMBLY_NUM1145PART-1-1
  *Nset, nset=ASSEMBLY_NUM1145RVE-3D-1
  *Nset, nset=ASSEMBLY_NUM1146PART-1-1
  *Nset, nset=ASSEMBLY_NUM1146RVE-3D-1
  *Nset, nset=ASSEMBLY_NUM1147PART-1-1
  *Nset, nset=ASSEMBLY_NUM1147RVE-3D-1
  *Nset, nset=ASSEMBLY_NUM1148PART-1-1
  *Nset, nset=ASSEMBLY_NUM1148RVE-3D-1
  *Nset, nset=ASSEMBLY_NUM1149PART-1-1
  *Nset, nset=ASSEMBLY_NUM1149RVE-3D-1
  *Nset, nset=ASSEMBLY_NUM114PART-1-1
  *Nset, nset=ASSEMBLY_NUM114RVE-3D-1
  *Nset, nset=ASSEMBLY_NUM1150PART-1-1
  *Nset, nset=ASSEMBLY_NUM1150RVE-3D-1
  *Nset, nset=ASSEMBLY_NUM1151PART-1-1
  *Nset, nset=ASSEMBLY_NUM1151RVE-3D-1
  *Nset, nset=ASSEMBLY_NUM1152PART-1-1
  *Nset, nset=ASSEMBLY_NUM1152RVE-3D-1
  *Nset, nset=ASSEMBLY_NUM1153PART-1-1
  *Nset, nset=ASSEMBLY_NUM1153RVE-3D-1
  *Nset, nset=ASSEMBLY_NUM1154PART-1-1
  *Nset, nset=ASSEMBLY_NUM1154RVE-3D-1
  *Nset, nset=ASSEMBLY_NUM1155PART-1-1
  *Nset, nset=ASSEMBLY_NUM1155RVE-3D-1
  *Nset, nset=ASSEMBLY_NUM1156PART-1-1
  *Nset, nset=ASSEMBLY_NUM1156RVE-3D-1
  *Nset, nset=ASSEMBLY_NUM1157PART-1-1
  *Nset, nset=ASSEMBLY_NUM1157RVE-3D-1
  *Nset, nset=ASSEMBLY_NUM1158PART-1-1
  *Nset, nset=ASSEMBLY_NUM1158RVE-3D-1
  *Nset, nset=ASSEMBLY_NUM1159PART-1-1
  *Nset, nset=ASSEMBLY_NUM1159RVE-3D-1
  *Nset, nset=ASSEMBLY_NUM115PART-1-1
  *Nset, nset=ASSEMBLY_NUM115RVE-3D-1
  *Nset, nset=ASSEMBLY_NUM1160PART-1-1
  *Nset, nset=ASSEMBLY_NUM1160RVE-3D-1
  *Nset, nset=ASSEMBLY_NUM1161PART-1-1
  *Nset, nset=ASSEMBLY_NUM1162PART-1-1
  *Nset, nset=ASSEMBLY_NUM1163PART-1-1
  *Nset, nset=ASSEMBLY_NUM1164PART-1-1
  *Nset, nset=ASSEMBLY_NUM1165PART-1-1
  *Nset, nset=ASSEMBLY_NUM1166PART-1-1
  *Nset, nset=ASSEMBLY_NUM1167PART-1-1
  *Nset, nset=ASSEMBLY_NUM1168PART-1-1
  *Nset, nset=ASSEMBLY_NUM1169PART-1-1
  *Nset, nset=ASSEMBLY_NUM116PART-1-1
  *Nset, nset=ASSEMBLY_NUM116RVE-3D-1
  *Nset, nset=ASSEMBLY_NUM1170PART-1-1
  *Nset, nset=ASSEMBLY_NUM1171PART-1-1
  *Nset, nset=ASSEMBLY_NUM1172PART-1-1
  *Nset, nset=ASSEMBLY_NUM1173PART-1-1
  *Nset, nset=ASSEMBLY_NUM1174PART-1-1
  *Nset, nset=ASSEMBLY_NUM1175PART-1-1
  *Nset, nset=ASSEMBLY_NUM1176PART-1-1
  *Nset, nset=ASSEMBLY_NUM1177PART-1-1
  *Nset, nset=ASSEMBLY_NUM1178PART-1-1
  *Nset, nset=ASSEMBLY_NUM1179PART-1-1
  *Nset, nset=ASSEMBLY_NUM117PART-1-1
  *Nset, nset=ASSEMBLY_NUM117RVE-3D-1
  *Nset, nset=ASSEMBLY_NUM1180PART-1-1
  *Nset, nset=ASSEMBLY_NUM1181PART-1-1
  *Nset, nset=ASSEMBLY_NUM1182PART-1-1
  *Nset, nset=ASSEMBLY_NUM1183PART-1-1
  *Nset, nset=ASSEMBLY_NUM1184PART-1-1
  *Nset, nset=ASSEMBLY_NUM1185PART-1-1
  *Nset, nset=ASSEMBLY_NUM1186PART-1-1
  *Nset, nset=ASSEMBLY_NUM1187PART-1-1
  *Nset, nset=ASSEMBLY_NUM1188PART-1-1
  *Nset, nset=ASSEMBLY_NUM1189PART-1-1
  *Nset, nset=ASSEMBLY_NUM118PART-1-1
  *Nset, nset=ASSEMBLY_NUM118RVE-3D-1
  *Nset, nset=ASSEMBLY_NUM1190PART-1-1
  *Nset, nset=ASSEMBLY_NUM1191PART-1-1
  *Nset, nset=ASSEMBLY_NUM1192PART-1-1
  *Nset, nset=ASSEMBLY_NUM1193PART-1-1
  *Nset, nset=ASSEMBLY_NUM1194PART-1-1
  *Nset, nset=ASSEMBLY_NUM1195PART-1-1
  *Nset, nset=ASSEMBLY_NUM1196PART-1-1
  *Nset, nset=ASSEMBLY_NUM1197PART-1-1
  *Nset, nset=ASSEMBLY_NUM1197RVE-3D-1
  *Nset, nset=ASSEMBLY_NUM1198PART-1-1
  *Nset, nset=ASSEMBLY_NUM1198RVE-3D-1
  *Nset, nset=ASSEMBLY_NUM1199PART-1-1
  *Nset, nset=ASSEMBLY_NUM1199RVE-3D-1
  *Nset, nset=ASSEMBLY_NUM119PART-1-1
  *Nset, nset=ASSEMBLY_NUM119RVE-3D-1
  *Nset, nset=ASSEMBLY_NUM11PART-1-1
  *Nset, nset=ASSEMBLY_NUM11RVE-3D-1
  *Nset, nset=ASSEMBLY_NUM1200PART-1-1
  *Nset, nset=ASSEMBLY_NUM1200RVE-3D-1
  *Nset, nset=ASSEMBLY_NUM1201PART-1-1
  *Nset, nset=ASSEMBLY_NUM1201RVE-3D-1
  *Nset, nset=ASSEMBLY_NUM1202PART-1-1
  *Nset, nset=ASSEMBLY_NUM1202RVE-3D-1
  *Nset, nset=ASSEMBLY_NUM1203PART-1-1
  *Nset, nset=ASSEMBLY_NUM1203RVE-3D-1
  *Nset, nset=ASSEMBLY_NUM1204PART-1-1
  *Nset, nset=ASSEMBLY_NUM1204RVE-3D-1
  *Nset, nset=ASSEMBLY_NUM1205PART-1-1
  *Nset, nset=ASSEMBLY_NUM1205RVE-3D-1
  *Nset, nset=ASSEMBLY_NUM1206PART-1-1
  *Nset, nset=ASSEMBLY_NUM1206RVE-3D-1
  *Nset, nset=ASSEMBLY_NUM1207PART-1-1
  *Nset, nset=ASSEMBLY_NUM1207RVE-3D-1
  *Nset, nset=ASSEMBLY_NUM1208PART-1-1
  *Nset, nset=ASSEMBLY_NUM1208RVE-3D-1
  *Nset, nset=ASSEMBLY_NUM1209PART-1-1
  *Nset, nset=ASSEMBLY_NUM1209RVE-3D-1
  *Nset, nset=ASSEMBLY_NUM120PART-1-1
  *Nset, nset=ASSEMBLY_NUM120RVE-3D-1
  *Nset, nset=ASSEMBLY_NUM1210PART-1-1
  *Nset, nset=ASSEMBLY_NUM1210RVE-3D-1
  *Nset, nset=ASSEMBLY_NUM1211PART-1-1
  *Nset, nset=ASSEMBLY_NUM1211RVE-3D-1
  *Nset, nset=ASSEMBLY_NUM1212PART-1-1
  *Nset, nset=ASSEMBLY_NUM1212RVE-3D-1
  *Nset, nset=ASSEMBLY_NUM1213PART-1-1
  *Nset, nset=ASSEMBLY_NUM1213RVE-3D-1
  *Nset, nset=ASSEMBLY_NUM1214PART-1-1
  *Nset, nset=ASSEMBLY_NUM1214RVE-3D-1
  *Nset, nset=ASSEMBLY_NUM1215PART-1-1
  *Nset, nset=ASSEMBLY_NUM1215RVE-3D-1
  *Nset, nset=ASSEMBLY_NUM1216PART-1-1
  *Nset, nset=ASSEMBLY_NUM1216RVE-3D-1
  *Nset, nset=ASSEMBLY_NUM1217PART-1-1
  *Nset, nset=ASSEMBLY_NUM1217RVE-3D-1
  *Nset, nset=ASSEMBLY_NUM1218PART-1-1
  *Nset, nset=ASSEMBLY_NUM1218RVE-3D-1
  *Nset, nset=ASSEMBLY_NUM1219PART-1-1
  *Nset, nset=ASSEMBLY_NUM1219RVE-3D-1
  *Nset, nset=ASSEMBLY_NUM121PART-1-1
  *Nset, nset=ASSEMBLY_NUM121RVE-3D-1
  *Nset, nset=ASSEMBLY_NUM1220PART-1-1
  *Nset, nset=ASSEMBLY_NUM1220RVE-3D-1
  *Nset, nset=ASSEMBLY_NUM1221PART-1-1
  *Nset, nset=ASSEMBLY_NUM1221RVE-3D-1
  *Nset, nset=ASSEMBLY_NUM1222PART-1-1
  *Nset, nset=ASSEMBLY_NUM1222RVE-3D-1
  *Nset, nset=ASSEMBLY_NUM1223PART-1-1
  *Nset, nset=ASSEMBLY_NUM1223RVE-3D-1
  *Nset, nset=ASSEMBLY_NUM1224PART-1-1
  *Nset, nset=ASSEMBLY_NUM1224RVE-3D-1
  *Nset, nset=ASSEMBLY_NUM1225PART-1-1
  *Nset, nset=ASSEMBLY_NUM1225RVE-3D-1
  *Nset, nset=ASSEMBLY_NUM1226PART-1-1
  *Nset, nset=ASSEMBLY_NUM1226RVE-3D-1
  *Nset, nset=ASSEMBLY_NUM1227PART-1-1
  *Nset, nset=ASSEMBLY_NUM1227RVE-3D-1
  *Nset, nset=ASSEMBLY_NUM1228PART-1-1
  *Nset, nset=ASSEMBLY_NUM1228RVE-3D-1
  *Nset, nset=ASSEMBLY_NUM1229PART-1-1
  *Nset, nset=ASSEMBLY_NUM1229RVE-3D-1
  *Nset, nset=ASSEMBLY_NUM122PART-1-1
  *Nset, nset=ASSEMBLY_NUM122RVE-3D-1
  *Nset, nset=ASSEMBLY_NUM1230PART-1-1
  *Nset, nset=ASSEMBLY_NUM1230RVE-3D-1
  *Nset, nset=ASSEMBLY_NUM1231PART-1-1
  *Nset, nset=ASSEMBLY_NUM1231RVE-3D-1
  *Nset, nset=ASSEMBLY_NUM1232PART-1-1
  *Nset, nset=ASSEMBLY_NUM1232RVE-3D-1
  *Nset, nset=ASSEMBLY_NUM1233PART-1-1
  *Nset, nset=ASSEMBLY_NUM1234PART-1-1
  *Nset, nset=ASSEMBLY_NUM1235PART-1-1
  *Nset, nset=ASSEMBLY_NUM1236PART-1-1
  *Nset, nset=ASSEMBLY_NUM1237PART-1-1
  *Nset, nset=ASSEMBLY_NUM1238PART-1-1
  *Nset, nset=ASSEMBLY_NUM1239PART-1-1
  *Nset, nset=ASSEMBLY_NUM123PART-1-1
  *Nset, nset=ASSEMBLY_NUM123RVE-3D-1
  *Nset, nset=ASSEMBLY_NUM1240PART-1-1
  *Nset, nset=ASSEMBLY_NUM1241PART-1-1
  *Nset, nset=ASSEMBLY_NUM1242PART-1-1
  *Nset, nset=ASSEMBLY_NUM1243PART-1-1
  *Nset, nset=ASSEMBLY_NUM1244PART-1-1
  *Nset, nset=ASSEMBLY_NUM1245PART-1-1
  *Nset, nset=ASSEMBLY_NUM1246PART-1-1
  *Nset, nset=ASSEMBLY_NUM1247PART-1-1
  *Nset, nset=ASSEMBLY_NUM1248PART-1-1
  *Nset, nset=ASSEMBLY_NUM1249PART-1-1
  *Nset, nset=ASSEMBLY_NUM1249RVE-3D-1
  *Nset, nset=ASSEMBLY_NUM124PART-1-1
  *Nset, nset=ASSEMBLY_NUM124RVE-3D-1
  *Nset, nset=ASSEMBLY_NUM1250PART-1-1
  *Nset, nset=ASSEMBLY_NUM1250RVE-3D-1
  *Nset, nset=ASSEMBLY_NUM1251PART-1-1
  *Nset, nset=ASSEMBLY_NUM1251RVE-3D-1
  *Nset, nset=ASSEMBLY_NUM1252PART-1-1
  *Nset, nset=ASSEMBLY_NUM1252RVE-3D-1
  *Nset, nset=ASSEMBLY_NUM1253PART-1-1
  *Nset, nset=ASSEMBLY_NUM1253RVE-3D-1
  *Nset, nset=ASSEMBLY_NUM1254PART-1-1
  *Nset, nset=ASSEMBLY_NUM1254RVE-3D-1
  *Nset, nset=ASSEMBLY_NUM1255PART-1-1
  *Nset, nset=ASSEMBLY_NUM1255RVE-3D-1
  *Nset, nset=ASSEMBLY_NUM1256PART-1-1
  *Nset, nset=ASSEMBLY_NUM1256RVE-3D-1
  *Nset, nset=ASSEMBLY_NUM1257PART-1-1
  *Nset, nset=ASSEMBLY_NUM1257RVE-3D-1
  *Nset, nset=ASSEMBLY_NUM1258PART-1-1
  *Nset, nset=ASSEMBLY_NUM1258RVE-3D-1
  *Nset, nset=ASSEMBLY_NUM1259PART-1-1
  *Nset, nset=ASSEMBLY_NUM125PART-1-1
  *Nset, nset=ASSEMBLY_NUM125RVE-3D-1
  *Nset, nset=ASSEMBLY_NUM1260PART-1-1
  *Nset, nset=ASSEMBLY_NUM1261PART-1-1
  *Nset, nset=ASSEMBLY_NUM1262PART-1-1
  *Nset, nset=ASSEMBLY_NUM1263PART-1-1
  *Nset, nset=ASSEMBLY_NUM1264PART-1-1
  *Nset, nset=ASSEMBLY_NUM1265PART-1-1
  *Nset, nset=ASSEMBLY_NUM1266PART-1-1
  *Nset, nset=ASSEMBLY_NUM1267PART-1-1
  *Nset, nset=ASSEMBLY_NUM1268PART-1-1
  *Nset, nset=ASSEMBLY_NUM1269PART-1-1
  *Nset, nset=ASSEMBLY_NUM126PART-1-1
  *Nset, nset=ASSEMBLY_NUM126RVE-3D-1
  *Nset, nset=ASSEMBLY_NUM1270PART-1-1
  *Nset, nset=ASSEMBLY_NUM1271PART-1-1
  *Nset, nset=ASSEMBLY_NUM1272PART-1-1
  *Nset, nset=ASSEMBLY_NUM1273PART-1-1
  *Nset, nset=ASSEMBLY_NUM1274PART-1-1
  *Nset, nset=ASSEMBLY_NUM1275PART-1-1
  *Nset, nset=ASSEMBLY_NUM1276PART-1-1
  *Nset, nset=ASSEMBLY_NUM1277PART-1-1
  *Nset, nset=ASSEMBLY_NUM1278PART-1-1
  *Nset, nset=ASSEMBLY_NUM1279PART-1-1
  *Nset, nset=ASSEMBLY_NUM127PART-1-1
  *Nset, nset=ASSEMBLY_NUM1280PART-1-1
  *Nset, nset=ASSEMBLY_NUM1281PART-1-1
  *Nset, nset=ASSEMBLY_NUM1281RVE-3D-1
  *Nset, nset=ASSEMBLY_NUM1282PART-1-1
  *Nset, nset=ASSEMBLY_NUM1282RVE-3D-1
  *Nset, nset=ASSEMBLY_NUM1283PART-1-1
  *Nset, nset=ASSEMBLY_NUM1283RVE-3D-1
  *Nset, nset=ASSEMBLY_NUM1284PART-1-1
  *Nset, nset=ASSEMBLY_NUM1284RVE-3D-1
  *Nset, nset=ASSEMBLY_NUM1285PART-1-1
  *Nset, nset=ASSEMBLY_NUM1285RVE-3D-1
  *Nset, nset=ASSEMBLY_NUM1286PART-1-1
  *Nset, nset=ASSEMBLY_NUM1286RVE-3D-1
  *Nset, nset=ASSEMBLY_NUM1287PART-1-1
  *Nset, nset=ASSEMBLY_NUM1287RVE-3D-1
  *Nset, nset=ASSEMBLY_NUM1288PART-1-1
  *Nset, nset=ASSEMBLY_NUM1288RVE-3D-1
  *Nset, nset=ASSEMBLY_NUM1289PART-1-1
  *Nset, nset=ASSEMBLY_NUM1289RVE-3D-1
  *Nset, nset=ASSEMBLY_NUM128PART-1-1
  *Nset, nset=ASSEMBLY_NUM1290PART-1-1
  *Nset, nset=ASSEMBLY_NUM1290RVE-3D-1
  *Nset, nset=ASSEMBLY_NUM1291PART-1-1
  *Nset, nset=ASSEMBLY_NUM1291RVE-3D-1
  *Nset, nset=ASSEMBLY_NUM1292PART-1-1
  *Nset, nset=ASSEMBLY_NUM1292RVE-3D-1
  *Nset, nset=ASSEMBLY_NUM1293PART-1-1
  *Nset, nset=ASSEMBLY_NUM1293RVE-3D-1
  *Nset, nset=ASSEMBLY_NUM1294PART-1-1
  *Nset, nset=ASSEMBLY_NUM1294RVE-3D-1
  *Nset, nset=ASSEMBLY_NUM1295PART-1-1
  *Nset, nset=ASSEMBLY_NUM1295RVE-3D-1
  *Nset, nset=ASSEMBLY_NUM1296PART-1-1
  *Nset, nset=ASSEMBLY_NUM1296RVE-3D-1
  *Nset, nset=ASSEMBLY_NUM1297PART-1-1
  *Nset, nset=ASSEMBLY_NUM1297RVE-3D-1
  *Nset, nset=ASSEMBLY_NUM1298PART-1-1
  *Nset, nset=ASSEMBLY_NUM1298RVE-3D-1
  *Nset, nset=ASSEMBLY_NUM1299PART-1-1
  *Nset, nset=ASSEMBLY_NUM1299RVE-3D-1
  *Nset, nset=ASSEMBLY_NUM129PART-1-1
  *Nset, nset=ASSEMBLY_NUM129RVE-3D-1
  *Nset, nset=ASSEMBLY_NUM12PART-1-1
  *Nset, nset=ASSEMBLY_NUM12RVE-3D-1
  *Nset, nset=ASSEMBLY_NUM1300PART-1-1
  *Nset, nset=ASSEMBLY_NUM1301PART-1-1
  *Nset, nset=ASSEMBLY_NUM1302PART-1-1
  *Nset, nset=ASSEMBLY_NUM1303PART-1-1
  *Nset, nset=ASSEMBLY_NUM1304PART-1-1
  *Nset, nset=ASSEMBLY_NUM1305PART-1-1
  *Nset, nset=ASSEMBLY_NUM1306PART-1-1
  *Nset, nset=ASSEMBLY_NUM1307PART-1-1
  *Nset, nset=ASSEMBLY_NUM1308PART-1-1
  *Nset, nset=ASSEMBLY_NUM1309PART-1-1
  *Nset, nset=ASSEMBLY_NUM130PART-1-1
  *Nset, nset=ASSEMBLY_NUM130RVE-3D-1
  *Nset, nset=ASSEMBLY_NUM1310PART-1-1
  *Nset, nset=ASSEMBLY_NUM1311PART-1-1
  *Nset, nset=ASSEMBLY_NUM1312PART-1-1
  *Nset, nset=ASSEMBLY_NUM1313PART-1-1
  *Nset, nset=ASSEMBLY_NUM1314PART-1-1
  *Nset, nset=ASSEMBLY_NUM1315PART-1-1
  *Nset, nset=ASSEMBLY_NUM1316PART-1-1
  *Nset, nset=ASSEMBLY_NUM1317PART-1-1
  *Nset, nset=ASSEMBLY_NUM1318PART-1-1
  *Nset, nset=ASSEMBLY_NUM1319PART-1-1
  *Nset, nset=ASSEMBLY_NUM1319RVE-3D-1
  *Nset, nset=ASSEMBLY_NUM131PART-1-1
  *Nset, nset=ASSEMBLY_NUM131RVE-3D-1
  *Nset, nset=ASSEMBLY_NUM1320PART-1-1
  *Nset, nset=ASSEMBLY_NUM1320RVE-3D-1
  *Nset, nset=ASSEMBLY_NUM1321PART-1-1
  *Nset, nset=ASSEMBLY_NUM1321RVE-3D-1
  *Nset, nset=ASSEMBLY_NUM1322PART-1-1
  *Nset, nset=ASSEMBLY_NUM1322RVE-3D-1
  *Nset, nset=ASSEMBLY_NUM1323PART-1-1
  *Nset, nset=ASSEMBLY_NUM1323RVE-3D-1
  *Nset, nset=ASSEMBLY_NUM1324PART-1-1
  *Nset, nset=ASSEMBLY_NUM1324RVE-3D-1
  *Nset, nset=ASSEMBLY_NUM1325PART-1-1
  *Nset, nset=ASSEMBLY_NUM1325RVE-3D-1
  *Nset, nset=ASSEMBLY_NUM1326PART-1-1
  *Nset, nset=ASSEMBLY_NUM1326RVE-3D-1
  *Nset, nset=ASSEMBLY_NUM1327PART-1-1
  *Nset, nset=ASSEMBLY_NUM1327RVE-3D-1
  *Nset, nset=ASSEMBLY_NUM1328PART-1-1
  *Nset, nset=ASSEMBLY_NUM1328RVE-3D-1
  *Nset, nset=ASSEMBLY_NUM1329PART-1-1
  *Nset, nset=ASSEMBLY_NUM1329RVE-3D-1
  *Nset, nset=ASSEMBLY_NUM132PART-1-1
  *Nset, nset=ASSEMBLY_NUM132RVE-3D-1
  *Nset, nset=ASSEMBLY_NUM1330PART-1-1
  *Nset, nset=ASSEMBLY_NUM1330RVE-3D-1
  *Nset, nset=ASSEMBLY_NUM1331PART-1-1
  *Nset, nset=ASSEMBLY_NUM1331RVE-3D-1
  *Nset, nset=ASSEMBLY_NUM1332PART-1-1
  *Nset, nset=ASSEMBLY_NUM1332RVE-3D-1
  *Nset, nset=ASSEMBLY_NUM1333PART-1-1
  *Nset, nset=ASSEMBLY_NUM1333RVE-3D-1
  *Nset, nset=ASSEMBLY_NUM1334PART-1-1
  *Nset, nset=ASSEMBLY_NUM1334RVE-3D-1
  *Nset, nset=ASSEMBLY_NUM1335PART-1-1
  *Nset, nset=ASSEMBLY_NUM1335RVE-3D-1
  *Nset, nset=ASSEMBLY_NUM1336PART-1-1
  *Nset, nset=ASSEMBLY_NUM1337PART-1-1
  *Nset, nset=ASSEMBLY_NUM1338PART-1-1
  *Nset, nset=ASSEMBLY_NUM1339PART-1-1
  *Nset, nset=ASSEMBLY_NUM133PART-1-1
  *Nset, nset=ASSEMBLY_NUM133RVE-3D-1
  *Nset, nset=ASSEMBLY_NUM1340PART-1-1
  *Nset, nset=ASSEMBLY_NUM1341PART-1-1
  *Nset, nset=ASSEMBLY_NUM1342PART-1-1
  *Nset, nset=ASSEMBLY_NUM1343PART-1-1
  *Nset, nset=ASSEMBLY_NUM1344PART-1-1
  *Nset, nset=ASSEMBLY_NUM1345PART-1-1
  *Nset, nset=ASSEMBLY_NUM1346PART-1-1
  *Nset, nset=ASSEMBLY_NUM1347PART-1-1
  *Nset, nset=ASSEMBLY_NUM1348PART-1-1
  *Nset, nset=ASSEMBLY_NUM1349PART-1-1
  *Nset, nset=ASSEMBLY_NUM134PART-1-1
  *Nset, nset=ASSEMBLY_NUM134RVE-3D-1
  *Nset, nset=ASSEMBLY_NUM1350PART-1-1
  *Nset, nset=ASSEMBLY_NUM1351PART-1-1
  *Nset, nset=ASSEMBLY_NUM1352PART-1-1
  *Nset, nset=ASSEMBLY_NUM1353PART-1-1
  *Nset, nset=ASSEMBLY_NUM1353RVE-3D-1
  *Nset, nset=ASSEMBLY_NUM1354PART-1-1
  *Nset, nset=ASSEMBLY_NUM1354RVE-3D-1
  *Nset, nset=ASSEMBLY_NUM1355PART-1-1
  *Nset, nset=ASSEMBLY_NUM1355RVE-3D-1
  *Nset, nset=ASSEMBLY_NUM1356PART-1-1
  *Nset, nset=ASSEMBLY_NUM1356RVE-3D-1
  *Nset, nset=ASSEMBLY_NUM1357PART-1-1
  *Nset, nset=ASSEMBLY_NUM1357RVE-3D-1
  *Nset, nset=ASSEMBLY_NUM1358PART-1-1
  *Nset, nset=ASSEMBLY_NUM1358RVE-3D-1
  *Nset, nset=ASSEMBLY_NUM1359PART-1-1
  *Nset, nset=ASSEMBLY_NUM1359RVE-3D-1
  *Nset, nset=ASSEMBLY_NUM135PART-1-1
  *Nset, nset=ASSEMBLY_NUM135RVE-3D-1
  *Nset, nset=ASSEMBLY_NUM1360PART-1-1
  *Nset, nset=ASSEMBLY_NUM1361PART-1-1
  *Nset, nset=ASSEMBLY_NUM1362PART-1-1
  *Nset, nset=ASSEMBLY_NUM1363PART-1-1
  *Nset, nset=ASSEMBLY_NUM1364PART-1-1
  *Nset, nset=ASSEMBLY_NUM1365PART-1-1
  *Nset, nset=ASSEMBLY_NUM1366PART-1-1
  *Nset, nset=ASSEMBLY_NUM1367PART-1-1
  *Nset, nset=ASSEMBLY_NUM1368PART-1-1
  *Nset, nset=ASSEMBLY_NUM1369PART-1-1
  *Nset, nset=ASSEMBLY_NUM136PART-1-1
  *Nset, nset=ASSEMBLY_NUM1370PART-1-1
  *Nset, nset=ASSEMBLY_NUM1371PART-1-1
  *Nset, nset=ASSEMBLY_NUM1372PART-1-1
  *Nset, nset=ASSEMBLY_NUM1373PART-1-1
  *Nset, nset=ASSEMBLY_NUM1374PART-1-1
  *Nset, nset=ASSEMBLY_NUM1375PART-1-1
  *Nset, nset=ASSEMBLY_NUM1376PART-1-1
  *Nset, nset=ASSEMBLY_NUM1377PART-1-1
  *Nset, nset=ASSEMBLY_NUM1378PART-1-1
  *Nset, nset=ASSEMBLY_NUM1379PART-1-1
  *Nset, nset=ASSEMBLY_NUM137PART-1-1
  *Nset, nset=ASSEMBLY_NUM1380PART-1-1
  *Nset, nset=ASSEMBLY_NUM1381PART-1-1
  *Nset, nset=ASSEMBLY_NUM1382PART-1-1
  *Nset, nset=ASSEMBLY_NUM1383PART-1-1
  *Nset, nset=ASSEMBLY_NUM1383RVE-3D-1
  *Nset, nset=ASSEMBLY_NUM1384PART-1-1
  *Nset, nset=ASSEMBLY_NUM1384RVE-3D-1
  *Nset, nset=ASSEMBLY_NUM1385PART-1-1
  *Nset, nset=ASSEMBLY_NUM1385RVE-3D-1
  *Nset, nset=ASSEMBLY_NUM1386PART-1-1
  *Nset, nset=ASSEMBLY_NUM1386RVE-3D-1
  *Nset, nset=ASSEMBLY_NUM1387PART-1-1
  *Nset, nset=ASSEMBLY_NUM1387RVE-3D-1
  *Nset, nset=ASSEMBLY_NUM1388PART-1-1
  *Nset, nset=ASSEMBLY_NUM1388RVE-3D-1
  *Nset, nset=ASSEMBLY_NUM1389PART-1-1
  *Nset, nset=ASSEMBLY_NUM1389RVE-3D-1
  *Nset, nset=ASSEMBLY_NUM138PART-1-1
  *Nset, nset=ASSEMBLY_NUM1390PART-1-1
  *Nset, nset=ASSEMBLY_NUM1390RVE-3D-1
  *Nset, nset=ASSEMBLY_NUM1391PART-1-1
  *Nset, nset=ASSEMBLY_NUM1391RVE-3D-1
  *Nset, nset=ASSEMBLY_NUM1392PART-1-1
  *Nset, nset=ASSEMBLY_NUM1392RVE-3D-1
  *Nset, nset=ASSEMBLY_NUM1393PART-1-1
  *Nset, nset=ASSEMBLY_NUM1393RVE-3D-1
  *Nset, nset=ASSEMBLY_NUM1394PART-1-1
  *Nset, nset=ASSEMBLY_NUM1394RVE-3D-1
  *Nset, nset=ASSEMBLY_NUM1395PART-1-1
  *Nset, nset=ASSEMBLY_NUM1395RVE-3D-1
  *Nset, nset=ASSEMBLY_NUM1396PART-1-1
  *Nset, nset=ASSEMBLY_NUM1396RVE-3D-1
  *Nset, nset=ASSEMBLY_NUM1397PART-1-1
  *Nset, nset=ASSEMBLY_NUM1397RVE-3D-1
  *Nset, nset=ASSEMBLY_NUM1398PART-1-1
  *Nset, nset=ASSEMBLY_NUM1398RVE-3D-1
  *Nset, nset=ASSEMBLY_NUM1399PART-1-1
  *Nset, nset=ASSEMBLY_NUM139PART-1-1
  *Nset, nset=ASSEMBLY_NUM13PART-1-1
  *Nset, nset=ASSEMBLY_NUM1400PART-1-1
  *Nset, nset=ASSEMBLY_NUM1401PART-1-1
  *Nset, nset=ASSEMBLY_NUM1402PART-1-1
  *Nset, nset=ASSEMBLY_NUM1403PART-1-1
  *Nset, nset=ASSEMBLY_NUM1404PART-1-1
  *Nset, nset=ASSEMBLY_NUM1405PART-1-1
  *Nset, nset=ASSEMBLY_NUM1405RVE-3D-1
  *Nset, nset=ASSEMBLY_NUM1406PART-1-1
  *Nset, nset=ASSEMBLY_NUM1406RVE-3D-1
  *Nset, nset=ASSEMBLY_NUM1407PART-1-1
  *Nset, nset=ASSEMBLY_NUM1407RVE-3D-1
  *Nset, nset=ASSEMBLY_NUM1408PART-1-1
  *Nset, nset=ASSEMBLY_NUM1408RVE-3D-1
  *Nset, nset=ASSEMBLY_NUM1409PART-1-1
  *Nset, nset=ASSEMBLY_NUM1409RVE-3D-1
  *Nset, nset=ASSEMBLY_NUM140PART-1-1
  *Nset, nset=ASSEMBLY_NUM1410PART-1-1
  *Nset, nset=ASSEMBLY_NUM1410RVE-3D-1
  *Nset, nset=ASSEMBLY_NUM1411PART-1-1
  *Nset, nset=ASSEMBLY_NUM1412PART-1-1
  *Nset, nset=ASSEMBLY_NUM1413PART-1-1
  *Nset, nset=ASSEMBLY_NUM1414PART-1-1
  *Nset, nset=ASSEMBLY_NUM1415PART-1-1
  *Nset, nset=ASSEMBLY_NUM1416PART-1-1
  *Nset, nset=ASSEMBLY_NUM1417PART-1-1
  *Nset, nset=ASSEMBLY_NUM1418PART-1-1
  *Nset, nset=ASSEMBLY_NUM1419PART-1-1
  *Nset, nset=ASSEMBLY_NUM141PART-1-1
  *Nset, nset=ASSEMBLY_NUM1420PART-1-1
  *Nset, nset=ASSEMBLY_NUM1420RVE-3D-1
  *Nset, nset=ASSEMBLY_NUM1421PART-1-1
  *Nset, nset=ASSEMBLY_NUM1421RVE-3D-1
  *Nset, nset=ASSEMBLY_NUM1422PART-1-1
  *Nset, nset=ASSEMBLY_NUM1422RVE-3D-1
  *Nset, nset=ASSEMBLY_NUM1423PART-1-1
  *Nset, nset=ASSEMBLY_NUM1423RVE-3D-1
  *Nset, nset=ASSEMBLY_NUM1424PART-1-1
  *Nset, nset=ASSEMBLY_NUM1424RVE-3D-1
  *Nset, nset=ASSEMBLY_NUM1425PART-1-1
  *Nset, nset=ASSEMBLY_NUM1425RVE-3D-1
  *Nset, nset=ASSEMBLY_NUM1426PART-1-1
  *Nset, nset=ASSEMBLY_NUM1426RVE-3D-1
  *Nset, nset=ASSEMBLY_NUM1427PART-1-1
  *Nset, nset=ASSEMBLY_NUM1427RVE-3D-1
  *Nset, nset=ASSEMBLY_NUM1428PART-1-1
  *Nset, nset=ASSEMBLY_NUM1428RVE-3D-1
  *Nset, nset=ASSEMBLY_NUM1429PART-1-1
  *Nset, nset=ASSEMBLY_NUM1429RVE-3D-1
  *Nset, nset=ASSEMBLY_NUM142PART-1-1
  *Nset, nset=ASSEMBLY_NUM1430PART-1-1
  *Nset, nset=ASSEMBLY_NUM1430RVE-3D-1
  *Nset, nset=ASSEMBLY_NUM1431PART-1-1
  *Nset, nset=ASSEMBLY_NUM1431RVE-3D-1
  *Nset, nset=ASSEMBLY_NUM1432PART-1-1
  *Nset, nset=ASSEMBLY_NUM1433PART-1-1
  *Nset, nset=ASSEMBLY_NUM1434PART-1-1
  *Nset, nset=ASSEMBLY_NUM1435PART-1-1
  *Nset, nset=ASSEMBLY_NUM1436PART-1-1
  *Nset, nset=ASSEMBLY_NUM1437PART-1-1
  *Nset, nset=ASSEMBLY_NUM1438PART-1-1
  *Nset, nset=ASSEMBLY_NUM1439PART-1-1
  *Nset, nset=ASSEMBLY_NUM143PART-1-1
  *Nset, nset=ASSEMBLY_NUM143RVE-3D-1
  *Nset, nset=ASSEMBLY_NUM1440PART-1-1
  *Nset, nset=ASSEMBLY_NUM1441PART-1-1
  *Nset, nset=ASSEMBLY_NUM1442PART-1-1
  *Nset, nset=ASSEMBLY_NUM1443PART-1-1
  *Nset, nset=ASSEMBLY_NUM1444PART-1-1
  *Nset, nset=ASSEMBLY_NUM1445PART-1-1
  *Nset, nset=ASSEMBLY_NUM1446PART-1-1
  *Nset, nset=ASSEMBLY_NUM1447PART-1-1
  *Nset, nset=ASSEMBLY_NUM1448PART-1-1
  *Nset, nset=ASSEMBLY_NUM1449PART-1-1
  *Nset, nset=ASSEMBLY_NUM144PART-1-1
  *Nset, nset=ASSEMBLY_NUM144RVE-3D-1
  *Nset, nset=ASSEMBLY_NUM1450PART-1-1
  *Nset, nset=ASSEMBLY_NUM1451PART-1-1
  *Nset, nset=ASSEMBLY_NUM1452PART-1-1
  *Nset, nset=ASSEMBLY_NUM1453PART-1-1
  *Nset, nset=ASSEMBLY_NUM1454PART-1-1
  *Nset, nset=ASSEMBLY_NUM1455PART-1-1
  *Nset, nset=ASSEMBLY_NUM1456PART-1-1
  *Nset, nset=ASSEMBLY_NUM1457PART-1-1
  *Nset, nset=ASSEMBLY_NUM1458PART-1-1
  *Nset, nset=ASSEMBLY_NUM1459PART-1-1
  *Nset, nset=ASSEMBLY_NUM145PART-1-1
  *Nset, nset=ASSEMBLY_NUM145RVE-3D-1
  *Nset, nset=ASSEMBLY_NUM1460PART-1-1
  *Nset, nset=ASSEMBLY_NUM1461PART-1-1
  *Nset, nset=ASSEMBLY_NUM1462PART-1-1
  *Nset, nset=ASSEMBLY_NUM1463PART-1-1
  *Nset, nset=ASSEMBLY_NUM1464PART-1-1
  *Nset, nset=ASSEMBLY_NUM1465PART-1-1
  *Nset, nset=ASSEMBLY_NUM1466PART-1-1
  *Nset, nset=ASSEMBLY_NUM1467PART-1-1
  *Nset, nset=ASSEMBLY_NUM1468PART-1-1
  *Nset, nset=ASSEMBLY_NUM1469PART-1-1
  *Nset, nset=ASSEMBLY_NUM146PART-1-1
  *Nset, nset=ASSEMBLY_NUM146RVE-3D-1
  *Nset, nset=ASSEMBLY_NUM1470PART-1-1
  *Nset, nset=ASSEMBLY_NUM1471PART-1-1
  *Nset, nset=ASSEMBLY_NUM1472PART-1-1
  *Nset, nset=ASSEMBLY_NUM1473PART-1-1
  *Nset, nset=ASSEMBLY_NUM1474PART-1-1
  *Nset, nset=ASSEMBLY_NUM1475PART-1-1
  *Nset, nset=ASSEMBLY_NUM1476PART-1-1
  *Nset, nset=ASSEMBLY_NUM1477PART-1-1
  *Nset, nset=ASSEMBLY_NUM1478PART-1-1
  *Nset, nset=ASSEMBLY_NUM1479PART-1-1
  *Nset, nset=ASSEMBLY_NUM147PART-1-1
  *Nset, nset=ASSEMBLY_NUM147RVE-3D-1
  *Nset, nset=ASSEMBLY_NUM1480PART-1-1
  *Nset, nset=ASSEMBLY_NUM1481PART-1-1
  *Nset, nset=ASSEMBLY_NUM1482PART-1-1
  *Nset, nset=ASSEMBLY_NUM1483PART-1-1
  *Nset, nset=ASSEMBLY_NUM1484PART-1-1
  *Nset, nset=ASSEMBLY_NUM1485PART-1-1
  *Nset, nset=ASSEMBLY_NUM1486PART-1-1
  *Nset, nset=ASSEMBLY_NUM1487PART-1-1
  *Nset, nset=ASSEMBLY_NUM1488PART-1-1
  *Nset, nset=ASSEMBLY_NUM1489PART-1-1
  *Nset, nset=ASSEMBLY_NUM148PART-1-1
  *Nset, nset=ASSEMBLY_NUM148RVE-3D-1
  *Nset, nset=ASSEMBLY_NUM1490PART-1-1
  *Nset, nset=ASSEMBLY_NUM1491PART-1-1
  *Nset, nset=ASSEMBLY_NUM1492PART-1-1
  *Nset, nset=ASSEMBLY_NUM1493PART-1-1
  *Nset, nset=ASSEMBLY_NUM1494PART-1-1
  *Nset, nset=ASSEMBLY_NUM1495PART-1-1
  *Nset, nset=ASSEMBLY_NUM1496PART-1-1
  *Nset, nset=ASSEMBLY_NUM1497PART-1-1
  *Nset, nset=ASSEMBLY_NUM1498PART-1-1
  *Nset, nset=ASSEMBLY_NUM1499PART-1-1
  *Nset, nset=ASSEMBLY_NUM149PART-1-1
  *Nset, nset=ASSEMBLY_NUM14PART-1-1
  *Nset, nset=ASSEMBLY_NUM14RVE-3D-1
  *Nset, nset=ASSEMBLY_NUM1500PART-1-1
  *Nset, nset=ASSEMBLY_NUM1501PART-1-1
  *Nset, nset=ASSEMBLY_NUM1502PART-1-1
  *Nset, nset=ASSEMBLY_NUM1503PART-1-1
  *Nset, nset=ASSEMBLY_NUM1504PART-1-1
  *Nset, nset=ASSEMBLY_NUM1505PART-1-1
  *Nset, nset=ASSEMBLY_NUM1506PART-1-1
  *Nset, nset=ASSEMBLY_NUM1507PART-1-1
  *Nset, nset=ASSEMBLY_NUM1508PART-1-1
  *Nset, nset=ASSEMBLY_NUM1509PART-1-1
  *Nset, nset=ASSEMBLY_NUM150PART-1-1
  *Nset, nset=ASSEMBLY_NUM1510PART-1-1
  *Nset, nset=ASSEMBLY_NUM1511PART-1-1
  *Nset, nset=ASSEMBLY_NUM1512PART-1-1
  *Nset, nset=ASSEMBLY_NUM1513PART-1-1
  *Nset, nset=ASSEMBLY_NUM1514PART-1-1
  *Nset, nset=ASSEMBLY_NUM1515PART-1-1
  *Nset, nset=ASSEMBLY_NUM1516PART-1-1
  *Nset, nset=ASSEMBLY_NUM1517PART-1-1
  *Nset, nset=ASSEMBLY_NUM1518PART-1-1
  *Nset, nset=ASSEMBLY_NUM1519PART-1-1
  *Nset, nset=ASSEMBLY_NUM151PART-1-1
  *Nset, nset=ASSEMBLY_NUM1520PART-1-1
  *Nset, nset=ASSEMBLY_NUM1521PART-1-1
  *Nset, nset=ASSEMBLY_NUM1522PART-1-1
  *Nset, nset=ASSEMBLY_NUM1523PART-1-1
  *Nset, nset=ASSEMBLY_NUM1524PART-1-1
  *Nset, nset=ASSEMBLY_NUM1525PART-1-1
  *Nset, nset=ASSEMBLY_NUM1526PART-1-1
  *Nset, nset=ASSEMBLY_NUM1527PART-1-1
  *Nset, nset=ASSEMBLY_NUM1528PART-1-1
  *Nset, nset=ASSEMBLY_NUM1529PART-1-1
  *Nset, nset=ASSEMBLY_NUM152PART-1-1
  *Nset, nset=ASSEMBLY_NUM1530PART-1-1
  *Nset, nset=ASSEMBLY_NUM1531PART-1-1
  *Nset, nset=ASSEMBLY_NUM1532PART-1-1
  *Nset, nset=ASSEMBLY_NUM1533PART-1-1
  *Nset, nset=ASSEMBLY_NUM1534PART-1-1
  *Nset, nset=ASSEMBLY_NUM1535PART-1-1
  *Nset, nset=ASSEMBLY_NUM1536PART-1-1
  *Nset, nset=ASSEMBLY_NUM1537PART-1-1
  *Nset, nset=ASSEMBLY_NUM1538PART-1-1
  *Nset, nset=ASSEMBLY_NUM1539PART-1-1
  *Nset, nset=ASSEMBLY_NUM153PART-1-1
  *Nset, nset=ASSEMBLY_NUM1540PART-1-1
  *Nset, nset=ASSEMBLY_NUM1541PART-1-1
  *Nset, nset=ASSEMBLY_NUM1542PART-1-1
  *Nset, nset=ASSEMBLY_NUM1543PART-1-1
  *Nset, nset=ASSEMBLY_NUM1544PART-1-1
  *Nset, nset=ASSEMBLY_NUM1545PART-1-1
  *Nset, nset=ASSEMBLY_NUM1546PART-1-1
  *Nset, nset=ASSEMBLY_NUM1547PART-1-1
  *Nset, nset=ASSEMBLY_NUM1548PART-1-1
  *Nset, nset=ASSEMBLY_NUM1549PART-1-1
  *Nset, nset=ASSEMBLY_NUM154PART-1-1
  *Nset, nset=ASSEMBLY_NUM1550PART-1-1
  *Nset, nset=ASSEMBLY_NUM1551PART-1-1
  *Nset, nset=ASSEMBLY_NUM1552PART-1-1
  *Nset, nset=ASSEMBLY_NUM1553PART-1-1
  *Nset, nset=ASSEMBLY_NUM1554PART-1-1
  *Nset, nset=ASSEMBLY_NUM1555PART-1-1
  *Nset, nset=ASSEMBLY_NUM1556PART-1-1
  *Nset, nset=ASSEMBLY_NUM1557PART-1-1
  *Nset, nset=ASSEMBLY_NUM1558PART-1-1
  *Nset, nset=ASSEMBLY_NUM1559PART-1-1
  *Nset, nset=ASSEMBLY_NUM155PART-1-1
  *Nset, nset=ASSEMBLY_NUM1560PART-1-1
  *Nset, nset=ASSEMBLY_NUM1561PART-1-1
  *Nset, nset=ASSEMBLY_NUM1562PART-1-1
  *Nset, nset=ASSEMBLY_NUM1563PART-1-1
  *Nset, nset=ASSEMBLY_NUM1564PART-1-1
  *Nset, nset=ASSEMBLY_NUM1565PART-1-1
  *Nset, nset=ASSEMBLY_NUM1566PART-1-1
  *Nset, nset=ASSEMBLY_NUM1567PART-1-1
  *Nset, nset=ASSEMBLY_NUM1568PART-1-1
  *Nset, nset=ASSEMBLY_NUM1569PART-1-1
  *Nset, nset=ASSEMBLY_NUM156PART-1-1
  *Nset, nset=ASSEMBLY_NUM1570PART-1-1
  *Nset, nset=ASSEMBLY_NUM1571PART-1-1
  *Nset, nset=ASSEMBLY_NUM1572PART-1-1
  *Nset, nset=ASSEMBLY_NUM1573PART-1-1
  *Nset, nset=ASSEMBLY_NUM1574PART-1-1
  *Nset, nset=ASSEMBLY_NUM1575PART-1-1
  *Nset, nset=ASSEMBLY_NUM1576PART-1-1
  *Nset, nset=ASSEMBLY_NUM1577PART-1-1
  *Nset, nset=ASSEMBLY_NUM1578PART-1-1
  *Nset, nset=ASSEMBLY_NUM1579PART-1-1
  *Nset, nset=ASSEMBLY_NUM157PART-1-1
  *Nset, nset=ASSEMBLY_NUM157RVE-3D-1
  *Nset, nset=ASSEMBLY_NUM1580PART-1-1
  *Nset, nset=ASSEMBLY_NUM1581PART-1-1
  *Nset, nset=ASSEMBLY_NUM1582PART-1-1
  *Nset, nset=ASSEMBLY_NUM1583PART-1-1
  *Nset, nset=ASSEMBLY_NUM1584PART-1-1
  *Nset, nset=ASSEMBLY_NUM1585PART-1-1
  *Nset, nset=ASSEMBLY_NUM1586PART-1-1
  *Nset, nset=ASSEMBLY_NUM1587PART-1-1
  *Nset, nset=ASSEMBLY_NUM1588PART-1-1
  *Nset, nset=ASSEMBLY_NUM1589PART-1-1
  *Nset, nset=ASSEMBLY_NUM158PART-1-1
  *Nset, nset=ASSEMBLY_NUM158RVE-3D-1
  *Nset, nset=ASSEMBLY_NUM1590PART-1-1
  *Nset, nset=ASSEMBLY_NUM1591PART-1-1
  *Nset, nset=ASSEMBLY_NUM1592PART-1-1
  *Nset, nset=ASSEMBLY_NUM1593PART-1-1
  *Nset, nset=ASSEMBLY_NUM1594PART-1-1
  *Nset, nset=ASSEMBLY_NUM1595PART-1-1
  *Nset, nset=ASSEMBLY_NUM1596PART-1-1
  *Nset, nset=ASSEMBLY_NUM1597PART-1-1
  *Nset, nset=ASSEMBLY_NUM1598PART-1-1
  *Nset, nset=ASSEMBLY_NUM1599PART-1-1
  *Nset, nset=ASSEMBLY_NUM159PART-1-1
  *Nset, nset=ASSEMBLY_NUM159RVE-3D-1
  *Nset, nset=ASSEMBLY_NUM15PART-1-1
  *Nset, nset=ASSEMBLY_NUM15RVE-3D-1
  *Nset, nset=ASSEMBLY_NUM1600PART-1-1
  *Nset, nset=ASSEMBLY_NUM1600RVE-3D-1
  *Nset, nset=ASSEMBLY_NUM1601PART-1-1
  *Nset, nset=ASSEMBLY_NUM1601RVE-3D-1
  *Nset, nset=ASSEMBLY_NUM1602PART-1-1
  *Nset, nset=ASSEMBLY_NUM1602RVE-3D-1
  *Nset, nset=ASSEMBLY_NUM1603PART-1-1
  *Nset, nset=ASSEMBLY_NUM1603RVE-3D-1
  *Nset, nset=ASSEMBLY_NUM1604PART-1-1
  *Nset, nset=ASSEMBLY_NUM1604RVE-3D-1
  *Nset, nset=ASSEMBLY_NUM1605PART-1-1
  *Nset, nset=ASSEMBLY_NUM1605RVE-3D-1
  *Nset, nset=ASSEMBLY_NUM1606PART-1-1
  *Nset, nset=ASSEMBLY_NUM1606RVE-3D-1
  *Nset, nset=ASSEMBLY_NUM1607PART-1-1
  *Nset, nset=ASSEMBLY_NUM1608PART-1-1
  *Nset, nset=ASSEMBLY_NUM1609PART-1-1
  *Nset, nset=ASSEMBLY_NUM160PART-1-1
  *Nset, nset=ASSEMBLY_NUM160RVE-3D-1
  *Nset, nset=ASSEMBLY_NUM1610PART-1-1
  *Nset, nset=ASSEMBLY_NUM1611PART-1-1
  *Nset, nset=ASSEMBLY_NUM1612PART-1-1
  *Nset, nset=ASSEMBLY_NUM1613PART-1-1
  *Nset, nset=ASSEMBLY_NUM1614PART-1-1
  *Nset, nset=ASSEMBLY_NUM1615PART-1-1
  *Nset, nset=ASSEMBLY_NUM1616PART-1-1
  *Nset, nset=ASSEMBLY_NUM1617PART-1-1
  *Nset, nset=ASSEMBLY_NUM1618PART-1-1
  *Nset, nset=ASSEMBLY_NUM1619PART-1-1
  *Nset, nset=ASSEMBLY_NUM161PART-1-1
  *Nset, nset=ASSEMBLY_NUM161RVE-3D-1
  *Nset, nset=ASSEMBLY_NUM1620PART-1-1
  *Nset, nset=ASSEMBLY_NUM1621PART-1-1
  *Nset, nset=ASSEMBLY_NUM1622PART-1-1
  *Nset, nset=ASSEMBLY_NUM1623PART-1-1
  *Nset, nset=ASSEMBLY_NUM1624PART-1-1
  *Nset, nset=ASSEMBLY_NUM1625PART-1-1
  *Nset, nset=ASSEMBLY_NUM1626PART-1-1
  *Nset, nset=ASSEMBLY_NUM1627PART-1-1
  *Nset, nset=ASSEMBLY_NUM1628PART-1-1
  *Nset, nset=ASSEMBLY_NUM1629PART-1-1
  *Nset, nset=ASSEMBLY_NUM162PART-1-1
  *Nset, nset=ASSEMBLY_NUM162RVE-3D-1
  *Nset, nset=ASSEMBLY_NUM1630PART-1-1
  *Nset, nset=ASSEMBLY_NUM1631PART-1-1
  *Nset, nset=ASSEMBLY_NUM1632PART-1-1
  *Nset, nset=ASSEMBLY_NUM1633PART-1-1
  *Nset, nset=ASSEMBLY_NUM1634PART-1-1
  *Nset, nset=ASSEMBLY_NUM1635PART-1-1
  *Nset, nset=ASSEMBLY_NUM1636PART-1-1
  *Nset, nset=ASSEMBLY_NUM1637PART-1-1
  *Nset, nset=ASSEMBLY_NUM1638PART-1-1
  *Nset, nset=ASSEMBLY_NUM1639PART-1-1
  *Nset, nset=ASSEMBLY_NUM163PART-1-1
  *Nset, nset=ASSEMBLY_NUM163RVE-3D-1
  *Nset, nset=ASSEMBLY_NUM1640PART-1-1
  *Nset, nset=ASSEMBLY_NUM1641PART-1-1
  *Nset, nset=ASSEMBLY_NUM1642PART-1-1
  *Nset, nset=ASSEMBLY_NUM1643PART-1-1
  *Nset, nset=ASSEMBLY_NUM1644PART-1-1
  *Nset, nset=ASSEMBLY_NUM1645PART-1-1
  *Nset, nset=ASSEMBLY_NUM1646PART-1-1
  *Nset, nset=ASSEMBLY_NUM1647PART-1-1
  *Nset, nset=ASSEMBLY_NUM1648PART-1-1
  *Nset, nset=ASSEMBLY_NUM1649PART-1-1
  *Nset, nset=ASSEMBLY_NUM164PART-1-1
  *Nset, nset=ASSEMBLY_NUM164RVE-3D-1
  *Nset, nset=ASSEMBLY_NUM1650PART-1-1
  *Nset, nset=ASSEMBLY_NUM1651PART-1-1
  *Nset, nset=ASSEMBLY_NUM1652PART-1-1
  *Nset, nset=ASSEMBLY_NUM1653PART-1-1
  *Nset, nset=ASSEMBLY_NUM1654PART-1-1
  *Nset, nset=ASSEMBLY_NUM1655PART-1-1
  *Nset, nset=ASSEMBLY_NUM1656PART-1-1
  *Nset, nset=ASSEMBLY_NUM1657PART-1-1
  *Nset, nset=ASSEMBLY_NUM1658PART-1-1
  *Nset, nset=ASSEMBLY_NUM1659PART-1-1
  *Nset, nset=ASSEMBLY_NUM165PART-1-1
  *Nset, nset=ASSEMBLY_NUM165RVE-3D-1
  *Nset, nset=ASSEMBLY_NUM1660PART-1-1
  *Nset, nset=ASSEMBLY_NUM1661PART-1-1
  *Nset, nset=ASSEMBLY_NUM1662PART-1-1
  *Nset, nset=ASSEMBLY_NUM1663PART-1-1
  *Nset, nset=ASSEMBLY_NUM1664PART-1-1
  *Nset, nset=ASSEMBLY_NUM1665PART-1-1
  *Nset, nset=ASSEMBLY_NUM1666PART-1-1
  *Nset, nset=ASSEMBLY_NUM1667PART-1-1
  *Nset, nset=ASSEMBLY_NUM1668PART-1-1
  *Nset, nset=ASSEMBLY_NUM1669PART-1-1
  *Nset, nset=ASSEMBLY_NUM166PART-1-1
  *Nset, nset=ASSEMBLY_NUM166RVE-3D-1
  *Nset, nset=ASSEMBLY_NUM1670PART-1-1
  *Nset, nset=ASSEMBLY_NUM1671PART-1-1
  *Nset, nset=ASSEMBLY_NUM1672PART-1-1
  *Nset, nset=ASSEMBLY_NUM1673PART-1-1
  *Nset, nset=ASSEMBLY_NUM1674PART-1-1
  *Nset, nset=ASSEMBLY_NUM1675PART-1-1
  *Nset, nset=ASSEMBLY_NUM1676PART-1-1
  *Nset, nset=ASSEMBLY_NUM1677PART-1-1
  *Nset, nset=ASSEMBLY_NUM1678PART-1-1
  *Nset, nset=ASSEMBLY_NUM1679PART-1-1
  *Nset, nset=ASSEMBLY_NUM167PART-1-1
  *Nset, nset=ASSEMBLY_NUM167RVE-3D-1
  *Nset, nset=ASSEMBLY_NUM1680PART-1-1
  *Nset, nset=ASSEMBLY_NUM1681PART-1-1
  *Nset, nset=ASSEMBLY_NUM1682PART-1-1
  *Nset, nset=ASSEMBLY_NUM1683PART-1-1
  *Nset, nset=ASSEMBLY_NUM1684PART-1-1
  *Nset, nset=ASSEMBLY_NUM1685PART-1-1
  *Nset, nset=ASSEMBLY_NUM1686PART-1-1
  *Nset, nset=ASSEMBLY_NUM1687PART-1-1
  *Nset, nset=ASSEMBLY_NUM1688PART-1-1
  *Nset, nset=ASSEMBLY_NUM1689PART-1-1
  *Nset, nset=ASSEMBLY_NUM168PART-1-1
  *Nset, nset=ASSEMBLY_NUM168RVE-3D-1
  *Nset, nset=ASSEMBLY_NUM1690PART-1-1
  *Nset, nset=ASSEMBLY_NUM1691PART-1-1
  *Nset, nset=ASSEMBLY_NUM1692PART-1-1
  *Nset, nset=ASSEMBLY_NUM1693PART-1-1
  *Nset, nset=ASSEMBLY_NUM1694PART-1-1
  *Nset, nset=ASSEMBLY_NUM1695PART-1-1
  *Nset, nset=ASSEMBLY_NUM1696PART-1-1
  *Nset, nset=ASSEMBLY_NUM1697PART-1-1
  *Nset, nset=ASSEMBLY_NUM1698PART-1-1
  *Nset, nset=ASSEMBLY_NUM1699PART-1-1
  *Nset, nset=ASSEMBLY_NUM169PART-1-1
  *Nset, nset=ASSEMBLY_NUM169RVE-3D-1
  *Nset, nset=ASSEMBLY_NUM16PART-1-1
  *Nset, nset=ASSEMBLY_NUM1700PART-1-1
  *Nset, nset=ASSEMBLY_NUM1701PART-1-1
  *Nset, nset=ASSEMBLY_NUM1702PART-1-1
  *Nset, nset=ASSEMBLY_NUM1703PART-1-1
  *Nset, nset=ASSEMBLY_NUM1704PART-1-1
  *Nset, nset=ASSEMBLY_NUM1705PART-1-1
  *Nset, nset=ASSEMBLY_NUM1706PART-1-1
  *Nset, nset=ASSEMBLY_NUM1707PART-1-1
  *Nset, nset=ASSEMBLY_NUM1708PART-1-1
  *Nset, nset=ASSEMBLY_NUM1709PART-1-1
  *Nset, nset=ASSEMBLY_NUM170PART-1-1
  *Nset, nset=ASSEMBLY_NUM170RVE-3D-1
  *Nset, nset=ASSEMBLY_NUM1710PART-1-1
  *Nset, nset=ASSEMBLY_NUM1711PART-1-1
  *Nset, nset=ASSEMBLY_NUM1712PART-1-1
  *Nset, nset=ASSEMBLY_NUM1713PART-1-1
  *Nset, nset=ASSEMBLY_NUM1714PART-1-1
  *Nset, nset=ASSEMBLY_NUM1715PART-1-1
  *Nset, nset=ASSEMBLY_NUM1716PART-1-1
  *Nset, nset=ASSEMBLY_NUM1717PART-1-1
  *Nset, nset=ASSEMBLY_NUM1718PART-1-1
  *Nset, nset=ASSEMBLY_NUM1719PART-1-1
  *Nset, nset=ASSEMBLY_NUM171PART-1-1
  *Nset, nset=ASSEMBLY_NUM171RVE-3D-1
  *Nset, nset=ASSEMBLY_NUM1720PART-1-1
  *Nset, nset=ASSEMBLY_NUM1721PART-1-1
  *Nset, nset=ASSEMBLY_NUM1722PART-1-1
  *Nset, nset=ASSEMBLY_NUM1723PART-1-1
  *Nset, nset=ASSEMBLY_NUM1724PART-1-1
  *Nset, nset=ASSEMBLY_NUM1725PART-1-1
  *Nset, nset=ASSEMBLY_NUM1726PART-1-1
  *Nset, nset=ASSEMBLY_NUM1727PART-1-1
  *Nset, nset=ASSEMBLY_NUM1728PART-1-1
  *Nset, nset=ASSEMBLY_NUM1729PART-1-1
  *Nset, nset=ASSEMBLY_NUM172PART-1-1
  *Nset, nset=ASSEMBLY_NUM172RVE-3D-1
  *Nset, nset=ASSEMBLY_NUM1730PART-1-1
  *Nset, nset=ASSEMBLY_NUM1731PART-1-1
  *Nset, nset=ASSEMBLY_NUM1732PART-1-1
  *Nset, nset=ASSEMBLY_NUM1733PART-1-1
  *Nset, nset=ASSEMBLY_NUM1734PART-1-1
  *Nset, nset=ASSEMBLY_NUM1735PART-1-1
  *Nset, nset=ASSEMBLY_NUM1736PART-1-1
  *Nset, nset=ASSEMBLY_NUM1737PART-1-1
  *Nset, nset=ASSEMBLY_NUM1738PART-1-1
  *Nset, nset=ASSEMBLY_NUM1739PART-1-1
  *Nset, nset=ASSEMBLY_NUM173PART-1-1
  *Nset, nset=ASSEMBLY_NUM173RVE-3D-1
  *Nset, nset=ASSEMBLY_NUM1740PART-1-1
  *Nset, nset=ASSEMBLY_NUM1741PART-1-1
  *Nset, nset=ASSEMBLY_NUM1742PART-1-1
  *Nset, nset=ASSEMBLY_NUM1743PART-1-1
  *Nset, nset=ASSEMBLY_NUM1744PART-1-1
  *Nset, nset=ASSEMBLY_NUM1745PART-1-1
  *Nset, nset=ASSEMBLY_NUM1746PART-1-1
  *Nset, nset=ASSEMBLY_NUM1747PART-1-1
  *Nset, nset=ASSEMBLY_NUM1748PART-1-1
  *Nset, nset=ASSEMBLY_NUM1749PART-1-1
  *Nset, nset=ASSEMBLY_NUM174PART-1-1
  *Nset, nset=ASSEMBLY_NUM174RVE-3D-1
  *Nset, nset=ASSEMBLY_NUM1750PART-1-1
  *Nset, nset=ASSEMBLY_NUM1751PART-1-1
  *Nset, nset=ASSEMBLY_NUM1752PART-1-1
  *Nset, nset=ASSEMBLY_NUM1753PART-1-1
  *Nset, nset=ASSEMBLY_NUM1754PART-1-1
  *Nset, nset=ASSEMBLY_NUM1755PART-1-1
  *Nset, nset=ASSEMBLY_NUM1756PART-1-1
  *Nset, nset=ASSEMBLY_NUM1757PART-1-1
  *Nset, nset=ASSEMBLY_NUM1758PART-1-1
  *Nset, nset=ASSEMBLY_NUM1759PART-1-1
  *Nset, nset=ASSEMBLY_NUM175PART-1-1
  *Nset, nset=ASSEMBLY_NUM175RVE-3D-1
  *Nset, nset=ASSEMBLY_NUM1760PART-1-1
  *Nset, nset=ASSEMBLY_NUM1761PART-1-1
  *Nset, nset=ASSEMBLY_NUM1762PART-1-1
  *Nset, nset=ASSEMBLY_NUM1763PART-1-1
  *Nset, nset=ASSEMBLY_NUM1764PART-1-1
  *Nset, nset=ASSEMBLY_NUM1765PART-1-1
  *Nset, nset=ASSEMBLY_NUM1766PART-1-1
  *Nset, nset=ASSEMBLY_NUM1767PART-1-1
  *Nset, nset=ASSEMBLY_NUM1768PART-1-1
  *Nset, nset=ASSEMBLY_NUM1769PART-1-1
  *Nset, nset=ASSEMBLY_NUM176PART-1-1
  *Nset, nset=ASSEMBLY_NUM176RVE-3D-1
  *Nset, nset=ASSEMBLY_NUM1770PART-1-1
  *Nset, nset=ASSEMBLY_NUM1771PART-1-1
  *Nset, nset=ASSEMBLY_NUM1772PART-1-1
  *Nset, nset=ASSEMBLY_NUM1773PART-1-1
  *Nset, nset=ASSEMBLY_NUM1774PART-1-1
  *Nset, nset=ASSEMBLY_NUM1775PART-1-1
  *Nset, nset=ASSEMBLY_NUM1776PART-1-1
  *Nset, nset=ASSEMBLY_NUM1777PART-1-1
  *Nset, nset=ASSEMBLY_NUM1778PART-1-1
  *Nset, nset=ASSEMBLY_NUM1779PART-1-1
  *Nset, nset=ASSEMBLY_NUM177PART-1-1
  *Nset, nset=ASSEMBLY_NUM177RVE-3D-1
  *Nset, nset=ASSEMBLY_NUM1780PART-1-1
  *Nset, nset=ASSEMBLY_NUM1781PART-1-1
  *Nset, nset=ASSEMBLY_NUM1782PART-1-1
  *Nset, nset=ASSEMBLY_NUM1783PART-1-1
  *Nset, nset=ASSEMBLY_NUM1784PART-1-1
  *Nset, nset=ASSEMBLY_NUM1785PART-1-1
  *Nset, nset=ASSEMBLY_NUM1786PART-1-1
  *Nset, nset=ASSEMBLY_NUM1787PART-1-1
  *Nset, nset=ASSEMBLY_NUM1787RVE-3D-1
  *Nset, nset=ASSEMBLY_NUM1788PART-1-1
  *Nset, nset=ASSEMBLY_NUM1788RVE-3D-1
  *Nset, nset=ASSEMBLY_NUM1789PART-1-1
  *Nset, nset=ASSEMBLY_NUM1789RVE-3D-1
  *Nset, nset=ASSEMBLY_NUM178PART-1-1
  *Nset, nset=ASSEMBLY_NUM178RVE-3D-1
  *Nset, nset=ASSEMBLY_NUM1790PART-1-1
  *Nset, nset=ASSEMBLY_NUM1790RVE-3D-1
  *Nset, nset=ASSEMBLY_NUM1791PART-1-1
  *Nset, nset=ASSEMBLY_NUM1791RVE-3D-1
  *Nset, nset=ASSEMBLY_NUM1792PART-1-1
  *Nset, nset=ASSEMBLY_NUM1792RVE-3D-1
  *Nset, nset=ASSEMBLY_NUM1793PART-1-1
  *Nset, nset=ASSEMBLY_NUM1793RVE-3D-1
  *Nset, nset=ASSEMBLY_NUM1794PART-1-1
  *Nset, nset=ASSEMBLY_NUM1794RVE-3D-1
  *Nset, nset=ASSEMBLY_NUM1795PART-1-1
  *Nset, nset=ASSEMBLY_NUM1795RVE-3D-1
  *Nset, nset=ASSEMBLY_NUM1796PART-1-1
  *Nset, nset=ASSEMBLY_NUM1796RVE-3D-1
  *Nset, nset=ASSEMBLY_NUM1797PART-1-1
  *Nset, nset=ASSEMBLY_NUM1797RVE-3D-1
  *Nset, nset=ASSEMBLY_NUM1798PART-1-1
  *Nset, nset=ASSEMBLY_NUM1798RVE-3D-1
  *Nset, nset=ASSEMBLY_NUM1799PART-1-1
  *Nset, nset=ASSEMBLY_NUM1799RVE-3D-1
  *Nset, nset=ASSEMBLY_NUM179PART-1-1
  *Nset, nset=ASSEMBLY_NUM179RVE-3D-1
  *Nset, nset=ASSEMBLY_NUM17PART-1-1
  *Nset, nset=ASSEMBLY_NUM17RVE-3D-1
  *Nset, nset=ASSEMBLY_NUM1800PART-1-1
  *Nset, nset=ASSEMBLY_NUM1800RVE-3D-1
  *Nset, nset=ASSEMBLY_NUM1801PART-1-1
  *Nset, nset=ASSEMBLY_NUM1801RVE-3D-1
  *Nset, nset=ASSEMBLY_NUM1802PART-1-1
  *Nset, nset=ASSEMBLY_NUM1802RVE-3D-1
  *Nset, nset=ASSEMBLY_NUM1803PART-1-1
  *Nset, nset=ASSEMBLY_NUM1803RVE-3D-1
  *Nset, nset=ASSEMBLY_NUM1804PART-1-1
  *Nset, nset=ASSEMBLY_NUM1804RVE-3D-1
  *Nset, nset=ASSEMBLY_NUM1805PART-1-1
  *Nset, nset=ASSEMBLY_NUM1806PART-1-1
  *Nset, nset=ASSEMBLY_NUM1807PART-1-1
  *Nset, nset=ASSEMBLY_NUM1807RVE-3D-1
  *Nset, nset=ASSEMBLY_NUM1808PART-1-1
  *Nset, nset=ASSEMBLY_NUM1808RVE-3D-1
  *Nset, nset=ASSEMBLY_NUM1809PART-1-1
  *Nset, nset=ASSEMBLY_NUM1809RVE-3D-1
  *Nset, nset=ASSEMBLY_NUM180PART-1-1
  *Nset, nset=ASSEMBLY_NUM180RVE-3D-1
  *Nset, nset=ASSEMBLY_NUM1810PART-1-1
  *Nset, nset=ASSEMBLY_NUM1811PART-1-1
  *Nset, nset=ASSEMBLY_NUM1811RVE-3D-1
  *Nset, nset=ASSEMBLY_NUM1812PART-1-1
  *Nset, nset=ASSEMBLY_NUM1812RVE-3D-1
  *Nset, nset=ASSEMBLY_NUM1813PART-1-1
  *Nset, nset=ASSEMBLY_NUM1813RVE-3D-1
  *Nset, nset=ASSEMBLY_NUM1814PART-1-1
  *Nset, nset=ASSEMBLY_NUM1814RVE-3D-1
  *Nset, nset=ASSEMBLY_NUM1815PART-1-1
  *Nset, nset=ASSEMBLY_NUM1815RVE-3D-1
  *Nset, nset=ASSEMBLY_NUM1816PART-1-1
  *Nset, nset=ASSEMBLY_NUM1816RVE-3D-1
  *Nset, nset=ASSEMBLY_NUM1817PART-1-1
  *Nset, nset=ASSEMBLY_NUM1817RVE-3D-1
  *Nset, nset=ASSEMBLY_NUM1818PART-1-1
  *Nset, nset=ASSEMBLY_NUM1818RVE-3D-1
  *Nset, nset=ASSEMBLY_NUM1819PART-1-1
  *Nset, nset=ASSEMBLY_NUM1819RVE-3D-1
  *Nset, nset=ASSEMBLY_NUM181PART-1-1
  *Nset, nset=ASSEMBLY_NUM181RVE-3D-1
  *Nset, nset=ASSEMBLY_NUM1820PART-1-1
  *Nset, nset=ASSEMBLY_NUM1820RVE-3D-1
  *Nset, nset=ASSEMBLY_NUM1821PART-1-1
  *Nset, nset=ASSEMBLY_NUM1821RVE-3D-1
  *Nset, nset=ASSEMBLY_NUM1822PART-1-1
  *Nset, nset=ASSEMBLY_NUM1822RVE-3D-1
  *Nset, nset=ASSEMBLY_NUM1823PART-1-1
  *Nset, nset=ASSEMBLY_NUM1823RVE-3D-1
  *Nset, nset=ASSEMBLY_NUM1824PART-1-1
  *Nset, nset=ASSEMBLY_NUM1824RVE-3D-1
  *Nset, nset=ASSEMBLY_NUM1825PART-1-1
  *Nset, nset=ASSEMBLY_NUM1825RVE-3D-1
  *Nset, nset=ASSEMBLY_NUM1826PART-1-1
  *Nset, nset=ASSEMBLY_NUM1826RVE-3D-1
  *Nset, nset=ASSEMBLY_NUM1827PART-1-1
  *Nset, nset=ASSEMBLY_NUM1827RVE-3D-1
  *Nset, nset=ASSEMBLY_NUM1828PART-1-1
  *Nset, nset=ASSEMBLY_NUM1828RVE-3D-1
  *Nset, nset=ASSEMBLY_NUM1829PART-1-1
  *Nset, nset=ASSEMBLY_NUM1829RVE-3D-1
  *Nset, nset=ASSEMBLY_NUM182PART-1-1
  *Nset, nset=ASSEMBLY_NUM182RVE-3D-1
  *Nset, nset=ASSEMBLY_NUM1830PART-1-1
  *Nset, nset=ASSEMBLY_NUM1830RVE-3D-1
  *Nset, nset=ASSEMBLY_NUM1831PART-1-1
  *Nset, nset=ASSEMBLY_NUM1831RVE-3D-1
  *Nset, nset=ASSEMBLY_NUM1832PART-1-1
  *Nset, nset=ASSEMBLY_NUM1832RVE-3D-1
  *Nset, nset=ASSEMBLY_NUM1833PART-1-1
  *Nset, nset=ASSEMBLY_NUM1833RVE-3D-1
  *Nset, nset=ASSEMBLY_NUM1834PART-1-1
  *Nset, nset=ASSEMBLY_NUM1834RVE-3D-1
  *Nset, nset=ASSEMBLY_NUM1835PART-1-1
  *Nset, nset=ASSEMBLY_NUM1835RVE-3D-1
  *Nset, nset=ASSEMBLY_NUM1836PART-1-1
  *Nset, nset=ASSEMBLY_NUM1836RVE-3D-1
  *Nset, nset=ASSEMBLY_NUM1837PART-1-1
  *Nset, nset=ASSEMBLY_NUM1837RVE-3D-1
  *Nset, nset=ASSEMBLY_NUM1838PART-1-1
  *Nset, nset=ASSEMBLY_NUM1838RVE-3D-1
  *Nset, nset=ASSEMBLY_NUM1839PART-1-1
  *Nset, nset=ASSEMBLY_NUM1839RVE-3D-1
  *Nset, nset=ASSEMBLY_NUM183PART-1-1
  *Nset, nset=ASSEMBLY_NUM183RVE-3D-1
  *Nset, nset=ASSEMBLY_NUM1840PART-1-1
  *Nset, nset=ASSEMBLY_NUM1840RVE-3D-1
  *Nset, nset=ASSEMBLY_NUM1841PART-1-1
  *Nset, nset=ASSEMBLY_NUM1841RVE-3D-1
  *Nset, nset=ASSEMBLY_NUM1842PART-1-1
  *Nset, nset=ASSEMBLY_NUM1842RVE-3D-1
  *Nset, nset=ASSEMBLY_NUM1843PART-1-1
  *Nset, nset=ASSEMBLY_NUM1843RVE-3D-1
  *Nset, nset=ASSEMBLY_NUM1844PART-1-1
  *Nset, nset=ASSEMBLY_NUM1844RVE-3D-1
  *Nset, nset=ASSEMBLY_NUM1845PART-1-1
  *Nset, nset=ASSEMBLY_NUM1845RVE-3D-1
  *Nset, nset=ASSEMBLY_NUM1846PART-1-1
  *Nset, nset=ASSEMBLY_NUM1846RVE-3D-1
  *Nset, nset=ASSEMBLY_NUM1847PART-1-1
  *Nset, nset=ASSEMBLY_NUM1847RVE-3D-1
  *Nset, nset=ASSEMBLY_NUM1848PART-1-1
  *Nset, nset=ASSEMBLY_NUM1848RVE-3D-1
  *Nset, nset=ASSEMBLY_NUM1849PART-1-1
  *Nset, nset=ASSEMBLY_NUM1849RVE-3D-1
  *Nset, nset=ASSEMBLY_NUM184PART-1-1
  *Nset, nset=ASSEMBLY_NUM184RVE-3D-1
  *Nset, nset=ASSEMBLY_NUM1850PART-1-1
  *Nset, nset=ASSEMBLY_NUM1850RVE-3D-1
  *Nset, nset=ASSEMBLY_NUM1851PART-1-1
  *Nset, nset=ASSEMBLY_NUM1851RVE-3D-1
  *Nset, nset=ASSEMBLY_NUM1852PART-1-1
  *Nset, nset=ASSEMBLY_NUM1852RVE-3D-1
  *Nset, nset=ASSEMBLY_NUM1853PART-1-1
  *Nset, nset=ASSEMBLY_NUM1853RVE-3D-1
  *Nset, nset=ASSEMBLY_NUM1854PART-1-1
  *Nset, nset=ASSEMBLY_NUM1854RVE-3D-1
  *Nset, nset=ASSEMBLY_NUM1855PART-1-1
  *Nset, nset=ASSEMBLY_NUM1855RVE-3D-1
  *Nset, nset=ASSEMBLY_NUM1856PART-1-1
  *Nset, nset=ASSEMBLY_NUM1856RVE-3D-1
  *Nset, nset=ASSEMBLY_NUM1857PART-1-1
  *Nset, nset=ASSEMBLY_NUM1857RVE-3D-1
  *Nset, nset=ASSEMBLY_NUM1858PART-1-1
  *Nset, nset=ASSEMBLY_NUM1858RVE-3D-1
  *Nset, nset=ASSEMBLY_NUM1859PART-1-1
  *Nset, nset=ASSEMBLY_NUM1859RVE-3D-1
  *Nset, nset=ASSEMBLY_NUM185PART-1-1
  *Nset, nset=ASSEMBLY_NUM185RVE-3D-1
  *Nset, nset=ASSEMBLY_NUM1860PART-1-1
  *Nset, nset=ASSEMBLY_NUM1860RVE-3D-1
  *Nset, nset=ASSEMBLY_NUM1861PART-1-1
  *Nset, nset=ASSEMBLY_NUM1861RVE-3D-1
  *Nset, nset=ASSEMBLY_NUM1862PART-1-1
  *Nset, nset=ASSEMBLY_NUM1862RVE-3D-1
  *Nset, nset=ASSEMBLY_NUM1863PART-1-1
  *Nset, nset=ASSEMBLY_NUM1863RVE-3D-1
  *Nset, nset=ASSEMBLY_NUM1864PART-1-1
  *Nset, nset=ASSEMBLY_NUM1864RVE-3D-1
  *Nset, nset=ASSEMBLY_NUM1865PART-1-1
  *Nset, nset=ASSEMBLY_NUM1865RVE-3D-1
  *Nset, nset=ASSEMBLY_NUM1866PART-1-1
  *Nset, nset=ASSEMBLY_NUM1866RVE-3D-1
  *Nset, nset=ASSEMBLY_NUM1867PART-1-1
  *Nset, nset=ASSEMBLY_NUM1867RVE-3D-1
  *Nset, nset=ASSEMBLY_NUM1868PART-1-1
  *Nset, nset=ASSEMBLY_NUM1868RVE-3D-1
  *Nset, nset=ASSEMBLY_NUM1869PART-1-1
  *Nset, nset=ASSEMBLY_NUM1869RVE-3D-1
  *Nset, nset=ASSEMBLY_NUM186PART-1-1
  *Nset, nset=ASSEMBLY_NUM186RVE-3D-1
  *Nset, nset=ASSEMBLY_NUM1870PART-1-1
  *Nset, nset=ASSEMBLY_NUM1870RVE-3D-1
  *Nset, nset=ASSEMBLY_NUM1871PART-1-1
  *Nset, nset=ASSEMBLY_NUM1871RVE-3D-1
  *Nset, nset=ASSEMBLY_NUM1872PART-1-1
  *Nset, nset=ASSEMBLY_NUM1872RVE-3D-1
  *Nset, nset=ASSEMBLY_NUM1873PART-1-1
  *Nset, nset=ASSEMBLY_NUM1874PART-1-1
  *Nset, nset=ASSEMBLY_NUM1875PART-1-1
  *Nset, nset=ASSEMBLY_NUM1876PART-1-1
  *Nset, nset=ASSEMBLY_NUM1877PART-1-1
  *Nset, nset=ASSEMBLY_NUM1878PART-1-1
  *Nset, nset=ASSEMBLY_NUM1879PART-1-1
  *Nset, nset=ASSEMBLY_NUM187PART-1-1
  *Nset, nset=ASSEMBLY_NUM187RVE-3D-1
  *Nset, nset=ASSEMBLY_NUM1880PART-1-1
  *Nset, nset=ASSEMBLY_NUM1881PART-1-1
  *Nset, nset=ASSEMBLY_NUM1882PART-1-1
  *Nset, nset=ASSEMBLY_NUM1883PART-1-1
  *Nset, nset=ASSEMBLY_NUM1884PART-1-1
  *Nset, nset=ASSEMBLY_NUM1885PART-1-1
  *Nset, nset=ASSEMBLY_NUM1886PART-1-1
  *Nset, nset=ASSEMBLY_NUM1887PART-1-1
  *Nset, nset=ASSEMBLY_NUM1888PART-1-1
  *Nset, nset=ASSEMBLY_NUM1889PART-1-1
  *Nset, nset=ASSEMBLY_NUM1889RVE-3D-1
  *Nset, nset=ASSEMBLY_NUM188PART-1-1
  *Nset, nset=ASSEMBLY_NUM188RVE-3D-1
  *Nset, nset=ASSEMBLY_NUM1890PART-1-1
  *Nset, nset=ASSEMBLY_NUM1890RVE-3D-1
  *Nset, nset=ASSEMBLY_NUM1891PART-1-1
  *Nset, nset=ASSEMBLY_NUM1891RVE-3D-1
  *Nset, nset=ASSEMBLY_NUM1892PART-1-1
  *Nset, nset=ASSEMBLY_NUM1892RVE-3D-1
  *Nset, nset=ASSEMBLY_NUM1893PART-1-1
  *Nset, nset=ASSEMBLY_NUM1893RVE-3D-1
  *Nset, nset=ASSEMBLY_NUM1894PART-1-1
  *Nset, nset=ASSEMBLY_NUM1894RVE-3D-1
  *Nset, nset=ASSEMBLY_NUM1895PART-1-1
  *Nset, nset=ASSEMBLY_NUM1895RVE-3D-1
  *Nset, nset=ASSEMBLY_NUM1896PART-1-1
  *Nset, nset=ASSEMBLY_NUM1896RVE-3D-1
  *Nset, nset=ASSEMBLY_NUM1897PART-1-1
  *Nset, nset=ASSEMBLY_NUM1897RVE-3D-1
  *Nset, nset=ASSEMBLY_NUM1898PART-1-1
  *Nset, nset=ASSEMBLY_NUM1898RVE-3D-1
  *Nset, nset=ASSEMBLY_NUM1899PART-1-1
  *Nset, nset=ASSEMBLY_NUM1899RVE-3D-1
  *Nset, nset=ASSEMBLY_NUM189PART-1-1
  *Nset, nset=ASSEMBLY_NUM189RVE-3D-1
  *Nset, nset=ASSEMBLY_NUM18PART-1-1
  *Nset, nset=ASSEMBLY_NUM1900PART-1-1
  *Nset, nset=ASSEMBLY_NUM1900RVE-3D-1
  *Nset, nset=ASSEMBLY_NUM1901PART-1-1
  *Nset, nset=ASSEMBLY_NUM1901RVE-3D-1
  *Nset, nset=ASSEMBLY_NUM1902PART-1-1
  *Nset, nset=ASSEMBLY_NUM1902RVE-3D-1
  *Nset, nset=ASSEMBLY_NUM1903PART-1-1
  *Nset, nset=ASSEMBLY_NUM1903RVE-3D-1
  *Nset, nset=ASSEMBLY_NUM1904PART-1-1
  *Nset, nset=ASSEMBLY_NUM1904RVE-3D-1
  *Nset, nset=ASSEMBLY_NUM1905PART-1-1
  *Nset, nset=ASSEMBLY_NUM1905RVE-3D-1
  *Nset, nset=ASSEMBLY_NUM1906PART-1-1
  *Nset, nset=ASSEMBLY_NUM1906RVE-3D-1
  *Nset, nset=ASSEMBLY_NUM1907PART-1-1
  *Nset, nset=ASSEMBLY_NUM1907RVE-3D-1
  *Nset, nset=ASSEMBLY_NUM1908PART-1-1
  *Nset, nset=ASSEMBLY_NUM1908RVE-3D-1
  *Nset, nset=ASSEMBLY_NUM1909PART-1-1
  *Nset, nset=ASSEMBLY_NUM1909RVE-3D-1
  *Nset, nset=ASSEMBLY_NUM190PART-1-1
  *Nset, nset=ASSEMBLY_NUM190RVE-3D-1
  *Nset, nset=ASSEMBLY_NUM1910PART-1-1
  *Nset, nset=ASSEMBLY_NUM1910RVE-3D-1
  *Nset, nset=ASSEMBLY_NUM1911PART-1-1
  *Nset, nset=ASSEMBLY_NUM1911RVE-3D-1
  *Nset, nset=ASSEMBLY_NUM1912PART-1-1
  *Nset, nset=ASSEMBLY_NUM1912RVE-3D-1
  *Nset, nset=ASSEMBLY_NUM1913PART-1-1
  *Nset, nset=ASSEMBLY_NUM1913RVE-3D-1
  *Nset, nset=ASSEMBLY_NUM1914PART-1-1
  *Nset, nset=ASSEMBLY_NUM1914RVE-3D-1
  *Nset, nset=ASSEMBLY_NUM1915PART-1-1
  *Nset, nset=ASSEMBLY_NUM1915RVE-3D-1
  *Nset, nset=ASSEMBLY_NUM1916PART-1-1
  *Nset, nset=ASSEMBLY_NUM1916RVE-3D-1
  *Nset, nset=ASSEMBLY_NUM1917PART-1-1
  *Nset, nset=ASSEMBLY_NUM1917RVE-3D-1
  *Nset, nset=ASSEMBLY_NUM1918PART-1-1
  *Nset, nset=ASSEMBLY_NUM1918RVE-3D-1
  *Nset, nset=ASSEMBLY_NUM1919PART-1-1
  *Nset, nset=ASSEMBLY_NUM1919RVE-3D-1
  *Nset, nset=ASSEMBLY_NUM191PART-1-1
  *Nset, nset=ASSEMBLY_NUM191RVE-3D-1
  *Nset, nset=ASSEMBLY_NUM1920PART-1-1
  *Nset, nset=ASSEMBLY_NUM1920RVE-3D-1
  *Nset, nset=ASSEMBLY_NUM1921PART-1-1
  *Nset, nset=ASSEMBLY_NUM1921RVE-3D-1
  *Nset, nset=ASSEMBLY_NUM1922PART-1-1
  *Nset, nset=ASSEMBLY_NUM1922RVE-3D-1
  *Nset, nset=ASSEMBLY_NUM1923PART-1-1
  *Nset, nset=ASSEMBLY_NUM1923RVE-3D-1
  *Nset, nset=ASSEMBLY_NUM1924PART-1-1
  *Nset, nset=ASSEMBLY_NUM1924RVE-3D-1
  *Nset, nset=ASSEMBLY_NUM1925PART-1-1
  *Nset, nset=ASSEMBLY_NUM1925RVE-3D-1
  *Nset, nset=ASSEMBLY_NUM1926PART-1-1
  *Nset, nset=ASSEMBLY_NUM1926RVE-3D-1
  *Nset, nset=ASSEMBLY_NUM1927PART-1-1
  *Nset, nset=ASSEMBLY_NUM1927RVE-3D-1
  *Nset, nset=ASSEMBLY_NUM1928PART-1-1
  *Nset, nset=ASSEMBLY_NUM1928RVE-3D-1
  *Nset, nset=ASSEMBLY_NUM1929PART-1-1
  *Nset, nset=ASSEMBLY_NUM1929RVE-3D-1
  *Nset, nset=ASSEMBLY_NUM192PART-1-1
  *Nset, nset=ASSEMBLY_NUM192RVE-3D-1
  *Nset, nset=ASSEMBLY_NUM1930PART-1-1
  *Nset, nset=ASSEMBLY_NUM1930RVE-3D-1
  *Nset, nset=ASSEMBLY_NUM1931PART-1-1
  *Nset, nset=ASSEMBLY_NUM1931RVE-3D-1
  *Nset, nset=ASSEMBLY_NUM1932PART-1-1
  *Nset, nset=ASSEMBLY_NUM1932RVE-3D-1
  *Nset, nset=ASSEMBLY_NUM1933PART-1-1
  *Nset, nset=ASSEMBLY_NUM1933RVE-3D-1
  *Nset, nset=ASSEMBLY_NUM1934PART-1-1
  *Nset, nset=ASSEMBLY_NUM1934RVE-3D-1
  *Nset, nset=ASSEMBLY_NUM1935PART-1-1
  *Nset, nset=ASSEMBLY_NUM1935RVE-3D-1
  *Nset, nset=ASSEMBLY_NUM1936PART-1-1
  *Nset, nset=ASSEMBLY_NUM1936RVE-3D-1
  *Nset, nset=ASSEMBLY_NUM1937PART-1-1
  *Nset, nset=ASSEMBLY_NUM1937RVE-3D-1
  *Nset, nset=ASSEMBLY_NUM1938PART-1-1
  *Nset, nset=ASSEMBLY_NUM1938RVE-3D-1
  *Nset, nset=ASSEMBLY_NUM1939PART-1-1
  *Nset, nset=ASSEMBLY_NUM1939RVE-3D-1
  *Nset, nset=ASSEMBLY_NUM193PART-1-1
  *Nset, nset=ASSEMBLY_NUM193RVE-3D-1
  *Nset, nset=ASSEMBLY_NUM1940PART-1-1
  *Nset, nset=ASSEMBLY_NUM1940RVE-3D-1
  *Nset, nset=ASSEMBLY_NUM1941PART-1-1
  *Nset, nset=ASSEMBLY_NUM1941RVE-3D-1
  *Nset, nset=ASSEMBLY_NUM1942PART-1-1
  *Nset, nset=ASSEMBLY_NUM1942RVE-3D-1
  *Nset, nset=ASSEMBLY_NUM1943PART-1-1
  *Nset, nset=ASSEMBLY_NUM1943RVE-3D-1
  *Nset, nset=ASSEMBLY_NUM1944PART-1-1
  *Nset, nset=ASSEMBLY_NUM1944RVE-3D-1
  *Nset, nset=ASSEMBLY_NUM1945PART-1-1
  *Nset, nset=ASSEMBLY_NUM1945RVE-3D-1
  *Nset, nset=ASSEMBLY_NUM1946PART-1-1
  *Nset, nset=ASSEMBLY_NUM1946RVE-3D-1
  *Nset, nset=ASSEMBLY_NUM1947PART-1-1
  *Nset, nset=ASSEMBLY_NUM1947RVE-3D-1
  *Nset, nset=ASSEMBLY_NUM1948PART-1-1
  *Nset, nset=ASSEMBLY_NUM1948RVE-3D-1
  *Nset, nset=ASSEMBLY_NUM1949PART-1-1
  *Nset, nset=ASSEMBLY_NUM1949RVE-3D-1
  *Nset, nset=ASSEMBLY_NUM194PART-1-1
  *Nset, nset=ASSEMBLY_NUM194RVE-3D-1
  *Nset, nset=ASSEMBLY_NUM1950PART-1-1
  *Nset, nset=ASSEMBLY_NUM1950RVE-3D-1
  *Nset, nset=ASSEMBLY_NUM1951PART-1-1
  *Nset, nset=ASSEMBLY_NUM1951RVE-3D-1
  *Nset, nset=ASSEMBLY_NUM1952PART-1-1
  *Nset, nset=ASSEMBLY_NUM1952RVE-3D-1
  *Nset, nset=ASSEMBLY_NUM1953PART-1-1
  *Nset, nset=ASSEMBLY_NUM1953RVE-3D-1
  *Nset, nset=ASSEMBLY_NUM1954PART-1-1
  *Nset, nset=ASSEMBLY_NUM1954RVE-3D-1
  *Nset, nset=ASSEMBLY_NUM1955PART-1-1
  *Nset, nset=ASSEMBLY_NUM1955RVE-3D-1
  *Nset, nset=ASSEMBLY_NUM1956PART-1-1
  *Nset, nset=ASSEMBLY_NUM1956RVE-3D-1
  *Nset, nset=ASSEMBLY_NUM1957PART-1-1
  *Nset, nset=ASSEMBLY_NUM1957RVE-3D-1
  *Nset, nset=ASSEMBLY_NUM1958PART-1-1
  *Nset, nset=ASSEMBLY_NUM1958RVE-3D-1
  *Nset, nset=ASSEMBLY_NUM1959PART-1-1
  *Nset, nset=ASSEMBLY_NUM1959RVE-3D-1
  *Nset, nset=ASSEMBLY_NUM195PART-1-1
  *Nset, nset=ASSEMBLY_NUM195RVE-3D-1
  *Nset, nset=ASSEMBLY_NUM1960PART-1-1
  *Nset, nset=ASSEMBLY_NUM1960RVE-3D-1
  *Nset, nset=ASSEMBLY_NUM1961PART-1-1
  *Nset, nset=ASSEMBLY_NUM1961RVE-3D-1
  *Nset, nset=ASSEMBLY_NUM1962PART-1-1
  *Nset, nset=ASSEMBLY_NUM1962RVE-3D-1
  *Nset, nset=ASSEMBLY_NUM1963PART-1-1
  *Nset, nset=ASSEMBLY_NUM1963RVE-3D-1
  *Nset, nset=ASSEMBLY_NUM1964PART-1-1
  *Nset, nset=ASSEMBLY_NUM1964RVE-3D-1
  *Nset, nset=ASSEMBLY_NUM1965PART-1-1
  *Nset, nset=ASSEMBLY_NUM1965RVE-3D-1
  *Nset, nset=ASSEMBLY_NUM1966PART-1-1
  *Nset, nset=ASSEMBLY_NUM1966RVE-3D-1
  *Nset, nset=ASSEMBLY_NUM1967PART-1-1
  *Nset, nset=ASSEMBLY_NUM1967RVE-3D-1
  *Nset, nset=ASSEMBLY_NUM1968PART-1-1
  *Nset, nset=ASSEMBLY_NUM1968RVE-3D-1
  *Nset, nset=ASSEMBLY_NUM1969PART-1-1
  *Nset, nset=ASSEMBLY_NUM1969RVE-3D-1
  *Nset, nset=ASSEMBLY_NUM196PART-1-1
  *Nset, nset=ASSEMBLY_NUM196RVE-3D-1
  *Nset, nset=ASSEMBLY_NUM1970PART-1-1
  *Nset, nset=ASSEMBLY_NUM1970RVE-3D-1
  *Nset, nset=ASSEMBLY_NUM1971PART-1-1
  *Nset, nset=ASSEMBLY_NUM1971RVE-3D-1
  *Nset, nset=ASSEMBLY_NUM1972PART-1-1
  *Nset, nset=ASSEMBLY_NUM1972RVE-3D-1
  *Nset, nset=ASSEMBLY_NUM1973PART-1-1
  *Nset, nset=ASSEMBLY_NUM1973RVE-3D-1
  *Nset, nset=ASSEMBLY_NUM1974PART-1-1
  *Nset, nset=ASSEMBLY_NUM1974RVE-3D-1
  *Nset, nset=ASSEMBLY_NUM1975PART-1-1
  *Nset, nset=ASSEMBLY_NUM1975RVE-3D-1
  *Nset, nset=ASSEMBLY_NUM1976PART-1-1
  *Nset, nset=ASSEMBLY_NUM1976RVE-3D-1
  *Nset, nset=ASSEMBLY_NUM1977PART-1-1
  *Nset, nset=ASSEMBLY_NUM1977RVE-3D-1
  *Nset, nset=ASSEMBLY_NUM1978PART-1-1
  *Nset, nset=ASSEMBLY_NUM1978RVE-3D-1
  *Nset, nset=ASSEMBLY_NUM1979PART-1-1
  *Nset, nset=ASSEMBLY_NUM1979RVE-3D-1
  *Nset, nset=ASSEMBLY_NUM197PART-1-1
  *Nset, nset=ASSEMBLY_NUM197RVE-3D-1
  *Nset, nset=ASSEMBLY_NUM1980PART-1-1
  *Nset, nset=ASSEMBLY_NUM1980RVE-3D-1
  *Nset, nset=ASSEMBLY_NUM1981PART-1-1
  *Nset, nset=ASSEMBLY_NUM1981RVE-3D-1
  *Nset, nset=ASSEMBLY_NUM1982PART-1-1
  *Nset, nset=ASSEMBLY_NUM1982RVE-3D-1
  *Nset, nset=ASSEMBLY_NUM1983PART-1-1
  *Nset, nset=ASSEMBLY_NUM1983RVE-3D-1
  *Nset, nset=ASSEMBLY_NUM1984PART-1-1
  *Nset, nset=ASSEMBLY_NUM1984RVE-3D-1
  *Nset, nset=ASSEMBLY_NUM1985PART-1-1
  *Nset, nset=ASSEMBLY_NUM1985RVE-3D-1
  *Nset, nset=ASSEMBLY_NUM1986PART-1-1
  *Nset, nset=ASSEMBLY_NUM1986RVE-3D-1
  *Nset, nset=ASSEMBLY_NUM1987PART-1-1
  *Nset, nset=ASSEMBLY_NUM1987RVE-3D-1
  *Nset, nset=ASSEMBLY_NUM1988PART-1-1
  *Nset, nset=ASSEMBLY_NUM1988RVE-3D-1
  *Nset, nset=ASSEMBLY_NUM1989PART-1-1
  *Nset, nset=ASSEMBLY_NUM1989RVE-3D-1
  *Nset, nset=ASSEMBLY_NUM198PART-1-1
  *Nset, nset=ASSEMBLY_NUM198RVE-3D-1
  *Nset, nset=ASSEMBLY_NUM1990PART-1-1
  *Nset, nset=ASSEMBLY_NUM1990RVE-3D-1
  *Nset, nset=ASSEMBLY_NUM1991PART-1-1
  *Nset, nset=ASSEMBLY_NUM1991RVE-3D-1
  *Nset, nset=ASSEMBLY_NUM1992PART-1-1
  *Nset, nset=ASSEMBLY_NUM1992RVE-3D-1
  *Nset, nset=ASSEMBLY_NUM1993PART-1-1
  *Nset, nset=ASSEMBLY_NUM1993RVE-3D-1
  *Nset, nset=ASSEMBLY_NUM1994PART-1-1
  *Nset, nset=ASSEMBLY_NUM1994RVE-3D-1
  *Nset, nset=ASSEMBLY_NUM1995PART-1-1
  *Nset, nset=ASSEMBLY_NUM1995RVE-3D-1
  *Nset, nset=ASSEMBLY_NUM1996PART-1-1
  *Nset, nset=ASSEMBLY_NUM1996RVE-3D-1
  *Nset, nset=ASSEMBLY_NUM1997PART-1-1
  *Nset, nset=ASSEMBLY_NUM1997RVE-3D-1
  *Nset, nset=ASSEMBLY_NUM1998PART-1-1
  *Nset, nset=ASSEMBLY_NUM1998RVE-3D-1
  *Nset, nset=ASSEMBLY_NUM1999PART-1-1
  *Nset, nset=ASSEMBLY_NUM1999RVE-3D-1
  *Nset, nset=ASSEMBLY_NUM199PART-1-1
  *Nset, nset=ASSEMBLY_NUM199RVE-3D-1
  *Nset, nset=ASSEMBLY_NUM19PART-1-1
  *Nset, nset=ASSEMBLY_NUM1PART-1-1
  *Nset, nset=ASSEMBLY_NUM2000PART-1-1
  *Nset, nset=ASSEMBLY_NUM2000RVE-3D-1
  *Nset, nset=ASSEMBLY_NUM2001PART-1-1
  *Nset, nset=ASSEMBLY_NUM2001RVE-3D-1
  *Nset, nset=ASSEMBLY_NUM2002PART-1-1
  *Nset, nset=ASSEMBLY_NUM2002RVE-3D-1
  *Nset, nset=ASSEMBLY_NUM2003PART-1-1
  *Nset, nset=ASSEMBLY_NUM2003RVE-3D-1
  *Nset, nset=ASSEMBLY_NUM2004PART-1-1
  *Nset, nset=ASSEMBLY_NUM2004RVE-3D-1
  *Nset, nset=ASSEMBLY_NUM2005PART-1-1
  *Nset, nset=ASSEMBLY_NUM2005RVE-3D-1
  *Nset, nset=ASSEMBLY_NUM2006PART-1-1
  *Nset, nset=ASSEMBLY_NUM2006RVE-3D-1
  *Nset, nset=ASSEMBLY_NUM2007PART-1-1
  *Nset, nset=ASSEMBLY_NUM2007RVE-3D-1
  *Nset, nset=ASSEMBLY_NUM2008PART-1-1
  *Nset, nset=ASSEMBLY_NUM2008RVE-3D-1
  *Nset, nset=ASSEMBLY_NUM2009PART-1-1
  *Nset, nset=ASSEMBLY_NUM2009RVE-3D-1
  *Nset, nset=ASSEMBLY_NUM200PART-1-1
  *Nset, nset=ASSEMBLY_NUM200RVE-3D-1
  *Nset, nset=ASSEMBLY_NUM2010PART-1-1
  *Nset, nset=ASSEMBLY_NUM2010RVE-3D-1
  *Nset, nset=ASSEMBLY_NUM2011PART-1-1
  *Nset, nset=ASSEMBLY_NUM2011RVE-3D-1
  *Nset, nset=ASSEMBLY_NUM2012PART-1-1
  *Nset, nset=ASSEMBLY_NUM2012RVE-3D-1
  *Nset, nset=ASSEMBLY_NUM2013PART-1-1
  *Nset, nset=ASSEMBLY_NUM2013RVE-3D-1
  *Nset, nset=ASSEMBLY_NUM2014PART-1-1
  *Nset, nset=ASSEMBLY_NUM2014RVE-3D-1
  *Nset, nset=ASSEMBLY_NUM2015PART-1-1
  *Nset, nset=ASSEMBLY_NUM2015RVE-3D-1
  *Nset, nset=ASSEMBLY_NUM2016PART-1-1
  *Nset, nset=ASSEMBLY_NUM2016RVE-3D-1
  *Nset, nset=ASSEMBLY_NUM2017PART-1-1
  *Nset, nset=ASSEMBLY_NUM2017RVE-3D-1
  *Nset, nset=ASSEMBLY_NUM2018PART-1-1
  *Nset, nset=ASSEMBLY_NUM2018RVE-3D-1
  *Nset, nset=ASSEMBLY_NUM2019PART-1-1
  *Nset, nset=ASSEMBLY_NUM2019RVE-3D-1
  *Nset, nset=ASSEMBLY_NUM201PART-1-1
  *Nset, nset=ASSEMBLY_NUM2020PART-1-1
  *Nset, nset=ASSEMBLY_NUM2020RVE-3D-1
  *Nset, nset=ASSEMBLY_NUM2021PART-1-1
  *Nset, nset=ASSEMBLY_NUM2021RVE-3D-1
  *Nset, nset=ASSEMBLY_NUM2022PART-1-1
  *Nset, nset=ASSEMBLY_NUM2022RVE-3D-1
  *Nset, nset=ASSEMBLY_NUM2023PART-1-1
  *Nset, nset=ASSEMBLY_NUM2023RVE-3D-1
  *Nset, nset=ASSEMBLY_NUM2024PART-1-1
  *Nset, nset=ASSEMBLY_NUM2024RVE-3D-1
  *Nset, nset=ASSEMBLY_NUM2025PART-1-1
  *Nset, nset=ASSEMBLY_NUM2025RVE-3D-1
  *Nset, nset=ASSEMBLY_NUM2026PART-1-1
  *Nset, nset=ASSEMBLY_NUM2026RVE-3D-1
  *Nset, nset=ASSEMBLY_NUM2027PART-1-1
  *Nset, nset=ASSEMBLY_NUM2027RVE-3D-1
  *Nset, nset=ASSEMBLY_NUM2028PART-1-1
  *Nset, nset=ASSEMBLY_NUM2028RVE-3D-1
  *Nset, nset=ASSEMBLY_NUM2029PART-1-1
  *Nset, nset=ASSEMBLY_NUM2029RVE-3D-1
  *Nset, nset=ASSEMBLY_NUM202PART-1-1
  *Nset, nset=ASSEMBLY_NUM2030PART-1-1
  *Nset, nset=ASSEMBLY_NUM2030RVE-3D-1
  *Nset, nset=ASSEMBLY_NUM2031PART-1-1
  *Nset, nset=ASSEMBLY_NUM2031RVE-3D-1
  *Nset, nset=ASSEMBLY_NUM2032PART-1-1
  *Nset, nset=ASSEMBLY_NUM2032RVE-3D-1
  *Nset, nset=ASSEMBLY_NUM2033PART-1-1
  *Nset, nset=ASSEMBLY_NUM2033RVE-3D-1
  *Nset, nset=ASSEMBLY_NUM2034PART-1-1
  *Nset, nset=ASSEMBLY_NUM2034RVE-3D-1
  *Nset, nset=ASSEMBLY_NUM2035PART-1-1
  *Nset, nset=ASSEMBLY_NUM2035RVE-3D-1
  *Nset, nset=ASSEMBLY_NUM2036PART-1-1
  *Nset, nset=ASSEMBLY_NUM2036RVE-3D-1
  *Nset, nset=ASSEMBLY_NUM2037PART-1-1
  *Nset, nset=ASSEMBLY_NUM2037RVE-3D-1
  *Nset, nset=ASSEMBLY_NUM2038PART-1-1
  *Nset, nset=ASSEMBLY_NUM2038RVE-3D-1
  *Nset, nset=ASSEMBLY_NUM2039PART-1-1
  *Nset, nset=ASSEMBLY_NUM2039RVE-3D-1
  *Nset, nset=ASSEMBLY_NUM203PART-1-1
  *Nset, nset=ASSEMBLY_NUM2040PART-1-1
  *Nset, nset=ASSEMBLY_NUM2040RVE-3D-1
  *Nset, nset=ASSEMBLY_NUM2041PART-1-1
  *Nset, nset=ASSEMBLY_NUM2041RVE-3D-1
  *Nset, nset=ASSEMBLY_NUM2042PART-1-1
  *Nset, nset=ASSEMBLY_NUM2042RVE-3D-1
  *Nset, nset=ASSEMBLY_NUM2043PART-1-1
  *Nset, nset=ASSEMBLY_NUM2043RVE-3D-1
  *Nset, nset=ASSEMBLY_NUM2044PART-1-1
  *Nset, nset=ASSEMBLY_NUM2044RVE-3D-1
  *Nset, nset=ASSEMBLY_NUM2045PART-1-1
  *Nset, nset=ASSEMBLY_NUM2045RVE-3D-1
  *Nset, nset=ASSEMBLY_NUM2046PART-1-1
  *Nset, nset=ASSEMBLY_NUM2046RVE-3D-1
  *Nset, nset=ASSEMBLY_NUM2047PART-1-1
  *Nset, nset=ASSEMBLY_NUM2047RVE-3D-1
  *Nset, nset=ASSEMBLY_NUM2048PART-1-1
  *Nset, nset=ASSEMBLY_NUM2048RVE-3D-1
  *Nset, nset=ASSEMBLY_NUM2049PART-1-1
  *Nset, nset=ASSEMBLY_NUM2049RVE-3D-1
  *Nset, nset=ASSEMBLY_NUM204PART-1-1
  *Nset, nset=ASSEMBLY_NUM2050PART-1-1
  *Nset, nset=ASSEMBLY_NUM2050RVE-3D-1
  *Nset, nset=ASSEMBLY_NUM2051PART-1-1
  *Nset, nset=ASSEMBLY_NUM2051RVE-3D-1
  *Nset, nset=ASSEMBLY_NUM2052PART-1-1
  *Nset, nset=ASSEMBLY_NUM2052RVE-3D-1
  *Nset, nset=ASSEMBLY_NUM2053PART-1-1
  *Nset, nset=ASSEMBLY_NUM2053RVE-3D-1
  *Nset, nset=ASSEMBLY_NUM2054PART-1-1
  *Nset, nset=ASSEMBLY_NUM2054RVE-3D-1
  *Nset, nset=ASSEMBLY_NUM2055PART-1-1
  *Nset, nset=ASSEMBLY_NUM2055RVE-3D-1
  *Nset, nset=ASSEMBLY_NUM2056PART-1-1
  *Nset, nset=ASSEMBLY_NUM2056RVE-3D-1
  *Nset, nset=ASSEMBLY_NUM2057PART-1-1
  *Nset, nset=ASSEMBLY_NUM2057RVE-3D-1
  *Nset, nset=ASSEMBLY_NUM2058PART-1-1
  *Nset, nset=ASSEMBLY_NUM2058RVE-3D-1
  *Nset, nset=ASSEMBLY_NUM2059PART-1-1
  *Nset, nset=ASSEMBLY_NUM2059RVE-3D-1
  *Nset, nset=ASSEMBLY_NUM205PART-1-1
  *Nset, nset=ASSEMBLY_NUM2060PART-1-1
  *Nset, nset=ASSEMBLY_NUM2060RVE-3D-1
  *Nset, nset=ASSEMBLY_NUM2061PART-1-1
  *Nset, nset=ASSEMBLY_NUM2061RVE-3D-1
  *Nset, nset=ASSEMBLY_NUM2062PART-1-1
  *Nset, nset=ASSEMBLY_NUM2062RVE-3D-1
  *Nset, nset=ASSEMBLY_NUM2063PART-1-1
  *Nset, nset=ASSEMBLY_NUM2063RVE-3D-1
  *Nset, nset=ASSEMBLY_NUM2064PART-1-1
  *Nset, nset=ASSEMBLY_NUM2064RVE-3D-1
  *Nset, nset=ASSEMBLY_NUM2065PART-1-1
  *Nset, nset=ASSEMBLY_NUM2065RVE-3D-1
  *Nset, nset=ASSEMBLY_NUM2066PART-1-1
  *Nset, nset=ASSEMBLY_NUM2066RVE-3D-1
  *Nset, nset=ASSEMBLY_NUM2067PART-1-1
  *Nset, nset=ASSEMBLY_NUM2067RVE-3D-1
  *Nset, nset=ASSEMBLY_NUM2068PART-1-1
  *Nset, nset=ASSEMBLY_NUM2068RVE-3D-1
  *Nset, nset=ASSEMBLY_NUM2069PART-1-1
  *Nset, nset=ASSEMBLY_NUM2069RVE-3D-1
  *Nset, nset=ASSEMBLY_NUM206PART-1-1
  *Nset, nset=ASSEMBLY_NUM2070PART-1-1
  *Nset, nset=ASSEMBLY_NUM2070RVE-3D-1
  *Nset, nset=ASSEMBLY_NUM2071PART-1-1
  *Nset, nset=ASSEMBLY_NUM2071RVE-3D-1
  *Nset, nset=ASSEMBLY_NUM2072PART-1-1
  *Nset, nset=ASSEMBLY_NUM2072RVE-3D-1
  *Nset, nset=ASSEMBLY_NUM2073PART-1-1
  *Nset, nset=ASSEMBLY_NUM2073RVE-3D-1
  *Nset, nset=ASSEMBLY_NUM2074PART-1-1
  *Nset, nset=ASSEMBLY_NUM2074RVE-3D-1
  *Nset, nset=ASSEMBLY_NUM2075PART-1-1
  *Nset, nset=ASSEMBLY_NUM2075RVE-3D-1
  *Nset, nset=ASSEMBLY_NUM2076PART-1-1
  *Nset, nset=ASSEMBLY_NUM2076RVE-3D-1
  *Nset, nset=ASSEMBLY_NUM2077PART-1-1
  *Nset, nset=ASSEMBLY_NUM2077RVE-3D-1
  *Nset, nset=ASSEMBLY_NUM2078PART-1-1
  *Nset, nset=ASSEMBLY_NUM2078RVE-3D-1
  *Nset, nset=ASSEMBLY_NUM2079PART-1-1
  *Nset, nset=ASSEMBLY_NUM2079RVE-3D-1
  *Nset, nset=ASSEMBLY_NUM207PART-1-1
  *Nset, nset=ASSEMBLY_NUM2080PART-1-1
  *Nset, nset=ASSEMBLY_NUM2080RVE-3D-1
  *Nset, nset=ASSEMBLY_NUM2081PART-1-1
  *Nset, nset=ASSEMBLY_NUM2081RVE-3D-1
  *Nset, nset=ASSEMBLY_NUM2082PART-1-1
  *Nset, nset=ASSEMBLY_NUM2082RVE-3D-1
  *Nset, nset=ASSEMBLY_NUM2083PART-1-1
  *Nset, nset=ASSEMBLY_NUM2083RVE-3D-1
  *Nset, nset=ASSEMBLY_NUM2084PART-1-1
  *Nset, nset=ASSEMBLY_NUM2084RVE-3D-1
  *Nset, nset=ASSEMBLY_NUM2085PART-1-1
  *Nset, nset=ASSEMBLY_NUM2085RVE-3D-1
  *Nset, nset=ASSEMBLY_NUM2086PART-1-1
  *Nset, nset=ASSEMBLY_NUM2086RVE-3D-1
  *Nset, nset=ASSEMBLY_NUM2087PART-1-1
  *Nset, nset=ASSEMBLY_NUM2087RVE-3D-1
  *Nset, nset=ASSEMBLY_NUM2088PART-1-1
  *Nset, nset=ASSEMBLY_NUM2088RVE-3D-1
  *Nset, nset=ASSEMBLY_NUM2089PART-1-1
  *Nset, nset=ASSEMBLY_NUM2089RVE-3D-1
  *Nset, nset=ASSEMBLY_NUM208PART-1-1
  *Nset, nset=ASSEMBLY_NUM2090PART-1-1
  *Nset, nset=ASSEMBLY_NUM2090RVE-3D-1
  *Nset, nset=ASSEMBLY_NUM2091PART-1-1
  *Nset, nset=ASSEMBLY_NUM2091RVE-3D-1
  *Nset, nset=ASSEMBLY_NUM2092PART-1-1
  *Nset, nset=ASSEMBLY_NUM2092RVE-3D-1
  *Nset, nset=ASSEMBLY_NUM2093PART-1-1
  *Nset, nset=ASSEMBLY_NUM2093RVE-3D-1
  *Nset, nset=ASSEMBLY_NUM2094PART-1-1
  *Nset, nset=ASSEMBLY_NUM2094RVE-3D-1
  *Nset, nset=ASSEMBLY_NUM2095PART-1-1
  *Nset, nset=ASSEMBLY_NUM2095RVE-3D-1
  *Nset, nset=ASSEMBLY_NUM2096PART-1-1
  *Nset, nset=ASSEMBLY_NUM2096RVE-3D-1
  *Nset, nset=ASSEMBLY_NUM2097PART-1-1
  *Nset, nset=ASSEMBLY_NUM2097RVE-3D-1
  *Nset, nset=ASSEMBLY_NUM2098PART-1-1
  *Nset, nset=ASSEMBLY_NUM2098RVE-3D-1
  *Nset, nset=ASSEMBLY_NUM2099PART-1-1
  *Nset, nset=ASSEMBLY_NUM2099RVE-3D-1
  *Nset, nset=ASSEMBLY_NUM209PART-1-1
  *Nset, nset=ASSEMBLY_NUM20PART-1-1
  *Nset, nset=ASSEMBLY_NUM20RVE-3D-1
  *Nset, nset=ASSEMBLY_NUM2100PART-1-1
  *Nset, nset=ASSEMBLY_NUM2100RVE-3D-1
  *Nset, nset=ASSEMBLY_NUM2101PART-1-1
  *Nset, nset=ASSEMBLY_NUM2101RVE-3D-1
  *Nset, nset=ASSEMBLY_NUM2102PART-1-1
  *Nset, nset=ASSEMBLY_NUM2102RVE-3D-1
  *Nset, nset=ASSEMBLY_NUM2103PART-1-1
  *Nset, nset=ASSEMBLY_NUM2103RVE-3D-1
  *Nset, nset=ASSEMBLY_NUM2104PART-1-1
  *Nset, nset=ASSEMBLY_NUM2104RVE-3D-1
  *Nset, nset=ASSEMBLY_NUM2105PART-1-1
  *Nset, nset=ASSEMBLY_NUM2105RVE-3D-1
  *Nset, nset=ASSEMBLY_NUM2106PART-1-1
  *Nset, nset=ASSEMBLY_NUM2106RVE-3D-1
  *Nset, nset=ASSEMBLY_NUM2107PART-1-1
  *Nset, nset=ASSEMBLY_NUM2107RVE-3D-1
  *Nset, nset=ASSEMBLY_NUM2108PART-1-1
  *Nset, nset=ASSEMBLY_NUM2108RVE-3D-1
  *Nset, nset=ASSEMBLY_NUM2109PART-1-1
  *Nset, nset=ASSEMBLY_NUM2109RVE-3D-1
  *Nset, nset=ASSEMBLY_NUM210PART-1-1
  *Nset, nset=ASSEMBLY_NUM2110PART-1-1
  *Nset, nset=ASSEMBLY_NUM2110RVE-3D-1
  *Nset, nset=ASSEMBLY_NUM2111PART-1-1
  *Nset, nset=ASSEMBLY_NUM2111RVE-3D-1
  *Nset, nset=ASSEMBLY_NUM2112PART-1-1
  *Nset, nset=ASSEMBLY_NUM2112RVE-3D-1
  *Nset, nset=ASSEMBLY_NUM2113PART-1-1
  *Nset, nset=ASSEMBLY_NUM2113RVE-3D-1
  *Nset, nset=ASSEMBLY_NUM2114PART-1-1
  *Nset, nset=ASSEMBLY_NUM2114RVE-3D-1
  *Nset, nset=ASSEMBLY_NUM2115PART-1-1
  *Nset, nset=ASSEMBLY_NUM2115RVE-3D-1
  *Nset, nset=ASSEMBLY_NUM2116PART-1-1
  *Nset, nset=ASSEMBLY_NUM2116RVE-3D-1
  *Nset, nset=ASSEMBLY_NUM2117PART-1-1
  *Nset, nset=ASSEMBLY_NUM2117RVE-3D-1
  *Nset, nset=ASSEMBLY_NUM2118PART-1-1
  *Nset, nset=ASSEMBLY_NUM2118RVE-3D-1
  *Nset, nset=ASSEMBLY_NUM2119PART-1-1
  *Nset, nset=ASSEMBLY_NUM2119RVE-3D-1
  *Nset, nset=ASSEMBLY_NUM211PART-1-1
  *Nset, nset=ASSEMBLY_NUM2120PART-1-1
  *Nset, nset=ASSEMBLY_NUM2120RVE-3D-1
  *Nset, nset=ASSEMBLY_NUM2121PART-1-1
  *Nset, nset=ASSEMBLY_NUM2121RVE-3D-1
  *Nset, nset=ASSEMBLY_NUM2122PART-1-1
  *Nset, nset=ASSEMBLY_NUM2122RVE-3D-1
  *Nset, nset=ASSEMBLY_NUM2123PART-1-1
  *Nset, nset=ASSEMBLY_NUM2123RVE-3D-1
  *Nset, nset=ASSEMBLY_NUM2124PART-1-1
  *Nset, nset=ASSEMBLY_NUM2124RVE-3D-1
  *Nset, nset=ASSEMBLY_NUM2125PART-1-1
  *Nset, nset=ASSEMBLY_NUM2125RVE-3D-1
  *Nset, nset=ASSEMBLY_NUM2126PART-1-1
  *Nset, nset=ASSEMBLY_NUM2126RVE-3D-1
  *Nset, nset=ASSEMBLY_NUM2127PART-1-1
  *Nset, nset=ASSEMBLY_NUM2127RVE-3D-1
  *Nset, nset=ASSEMBLY_NUM2128PART-1-1
  *Nset, nset=ASSEMBLY_NUM2128RVE-3D-1
  *Nset, nset=ASSEMBLY_NUM2129PART-1-1
  *Nset, nset=ASSEMBLY_NUM2129RVE-3D-1
  *Nset, nset=ASSEMBLY_NUM212PART-1-1
  *Nset, nset=ASSEMBLY_NUM2130PART-1-1
  *Nset, nset=ASSEMBLY_NUM2130RVE-3D-1
  *Nset, nset=ASSEMBLY_NUM2131PART-1-1
  *Nset, nset=ASSEMBLY_NUM2131RVE-3D-1
  *Nset, nset=ASSEMBLY_NUM2132PART-1-1
  *Nset, nset=ASSEMBLY_NUM2132RVE-3D-1
  *Nset, nset=ASSEMBLY_NUM2133PART-1-1
  *Nset, nset=ASSEMBLY_NUM2133RVE-3D-1
  *Nset, nset=ASSEMBLY_NUM2134PART-1-1
  *Nset, nset=ASSEMBLY_NUM2134RVE-3D-1
  *Nset, nset=ASSEMBLY_NUM2135PART-1-1
  *Nset, nset=ASSEMBLY_NUM2135RVE-3D-1
  *Nset, nset=ASSEMBLY_NUM2136PART-1-1
[...]
  *Nset, nset=ASSEMBLY_NUM917PART-1-1
  *Nset, nset=ASSEMBLY_NUM918PART-1-1
  *Nset, nset=ASSEMBLY_NUM919PART-1-1
  *Nset, nset=ASSEMBLY_NUM91PART-1-1
  *Nset, nset=ASSEMBLY_NUM920PART-1-1
  *Nset, nset=ASSEMBLY_NUM921PART-1-1
  *Nset, nset=ASSEMBLY_NUM922PART-1-1
  *Nset, nset=ASSEMBLY_NUM923PART-1-1
  *Nset, nset=ASSEMBLY_NUM924PART-1-1
  *Nset, nset=ASSEMBLY_NUM925PART-1-1
  *Nset, nset=ASSEMBLY_NUM925RVE-3D-1
  *Nset, nset=ASSEMBLY_NUM926PART-1-1
  *Nset, nset=ASSEMBLY_NUM926RVE-3D-1
  *Nset, nset=ASSEMBLY_NUM927PART-1-1
  *Nset, nset=ASSEMBLY_NUM927RVE-3D-1
  *Nset, nset=ASSEMBLY_NUM928PART-1-1
  *Nset, nset=ASSEMBLY_NUM928RVE-3D-1
  *Nset, nset=ASSEMBLY_NUM929PART-1-1
  *Nset, nset=ASSEMBLY_NUM929RVE-3D-1
  *Nset, nset=ASSEMBLY_NUM92PART-1-1
  *Nset, nset=ASSEMBLY_NUM930PART-1-1
  *Nset, nset=ASSEMBLY_NUM930RVE-3D-1
  *Nset, nset=ASSEMBLY_NUM931PART-1-1
  *Nset, nset=ASSEMBLY_NUM931RVE-3D-1
  *Nset, nset=ASSEMBLY_NUM932PART-1-1
  *Nset, nset=ASSEMBLY_NUM932RVE-3D-1
  *Nset, nset=ASSEMBLY_NUM933PART-1-1
  *Nset, nset=ASSEMBLY_NUM933RVE-3D-1
  *Nset, nset=ASSEMBLY_NUM934PART-1-1
  *Nset, nset=ASSEMBLY_NUM934RVE-3D-1
  *Nset, nset=ASSEMBLY_NUM935PART-1-1
  *Nset, nset=ASSEMBLY_NUM935RVE-3D-1
  *Nset, nset=ASSEMBLY_NUM936PART-1-1
  *Nset, nset=ASSEMBLY_NUM936RVE-3D-1
  *Nset, nset=ASSEMBLY_NUM937PART-1-1
  *Nset, nset=ASSEMBLY_NUM938PART-1-1
  *Nset, nset=ASSEMBLY_NUM939PART-1-1
  *Nset, nset=ASSEMBLY_NUM93PART-1-1
  *Nset, nset=ASSEMBLY_NUM940PART-1-1
  *Nset, nset=ASSEMBLY_NUM941PART-1-1
  *Nset, nset=ASSEMBLY_NUM942PART-1-1
  *Nset, nset=ASSEMBLY_NUM943PART-1-1
  *Nset, nset=ASSEMBLY_NUM944PART-1-1
  *Nset, nset=ASSEMBLY_NUM945PART-1-1
  *Nset, nset=ASSEMBLY_NUM946PART-1-1
  *Nset, nset=ASSEMBLY_NUM947PART-1-1
  *Nset, nset=ASSEMBLY_NUM948PART-1-1
  *Nset, nset=ASSEMBLY_NUM949PART-1-1
  *Nset, nset=ASSEMBLY_NUM949RVE-3D-1
  *Nset, nset=ASSEMBLY_NUM94PART-1-1
  *Nset, nset=ASSEMBLY_NUM950PART-1-1
  *Nset, nset=ASSEMBLY_NUM950RVE-3D-1
  *Nset, nset=ASSEMBLY_NUM951PART-1-1
  *Nset, nset=ASSEMBLY_NUM951RVE-3D-1
  *Nset, nset=ASSEMBLY_NUM952PART-1-1
  *Nset, nset=ASSEMBLY_NUM952RVE-3D-1
  *Nset, nset=ASSEMBLY_NUM953PART-1-1
  *Nset, nset=ASSEMBLY_NUM954PART-1-1
  *Nset, nset=ASSEMBLY_NUM955PART-1-1
  *Nset, nset=ASSEMBLY_NUM956PART-1-1
  *Nset, nset=ASSEMBLY_NUM957PART-1-1
  *Nset, nset=ASSEMBLY_NUM957RVE-3D-1
  *Nset, nset=ASSEMBLY_NUM958PART-1-1
  *Nset, nset=ASSEMBLY_NUM958RVE-3D-1
  *Nset, nset=ASSEMBLY_NUM959PART-1-1
  *Nset, nset=ASSEMBLY_NUM959RVE-3D-1
  *Nset, nset=ASSEMBLY_NUM95PART-1-1
  *Nset, nset=ASSEMBLY_NUM960PART-1-1
  *Nset, nset=ASSEMBLY_NUM960RVE-3D-1
  *Nset, nset=ASSEMBLY_NUM961PART-1-1
  *Nset, nset=ASSEMBLY_NUM961RVE-3D-1
  *Nset, nset=ASSEMBLY_NUM962PART-1-1
  *Nset, nset=ASSEMBLY_NUM963PART-1-1
  *Nset, nset=ASSEMBLY_NUM964PART-1-1
  *Nset, nset=ASSEMBLY_NUM965PART-1-1
  *Nset, nset=ASSEMBLY_NUM966PART-1-1
  *Nset, nset=ASSEMBLY_NUM967PART-1-1
  *Nset, nset=ASSEMBLY_NUM968PART-1-1
  *Nset, nset=ASSEMBLY_NUM969PART-1-1
  *Nset, nset=ASSEMBLY_NUM96PART-1-1
  *Nset, nset=ASSEMBLY_NUM970PART-1-1
  *Nset, nset=ASSEMBLY_NUM971PART-1-1
  *Nset, nset=ASSEMBLY_NUM972PART-1-1
  *Nset, nset=ASSEMBLY_NUM972RVE-3D-1
  *Nset, nset=ASSEMBLY_NUM973PART-1-1
  *Nset, nset=ASSEMBLY_NUM973RVE-3D-1
  *Nset, nset=ASSEMBLY_NUM974PART-1-1
  *Nset, nset=ASSEMBLY_NUM974RVE-3D-1
  *Nset, nset=ASSEMBLY_NUM975PART-1-1
  *Nset, nset=ASSEMBLY_NUM975RVE-3D-1
  *Nset, nset=ASSEMBLY_NUM976PART-1-1
  *Nset, nset=ASSEMBLY_NUM976RVE-3D-1
  *Nset, nset=ASSEMBLY_NUM977PART-1-1
  *Nset, nset=ASSEMBLY_NUM977RVE-3D-1
  *Nset, nset=ASSEMBLY_NUM978PART-1-1
  *Nset, nset=ASSEMBLY_NUM978RVE-3D-1
  *Nset, nset=ASSEMBLY_NUM979PART-1-1
  *Nset, nset=ASSEMBLY_NUM979RVE-3D-1
  *Nset, nset=ASSEMBLY_NUM97PART-1-1
  *Nset, nset=ASSEMBLY_NUM980PART-1-1
  *Nset, nset=ASSEMBLY_NUM980RVE-3D-1
  *Nset, nset=ASSEMBLY_NUM981PART-1-1
  *Nset, nset=ASSEMBLY_NUM981RVE-3D-1
  *Nset, nset=ASSEMBLY_NUM982PART-1-1
  *Nset, nset=ASSEMBLY_NUM982RVE-3D-1
  *Nset, nset=ASSEMBLY_NUM983PART-1-1
  *Nset, nset=ASSEMBLY_NUM983RVE-3D-1
  *Nset, nset=ASSEMBLY_NUM984PART-1-1
  *Nset, nset=ASSEMBLY_NUM984RVE-3D-1
  *Nset, nset=ASSEMBLY_NUM985PART-1-1
  *Nset, nset=ASSEMBLY_NUM985RVE-3D-1
  *Nset, nset=ASSEMBLY_NUM986PART-1-1
  *Nset, nset=ASSEMBLY_NUM986RVE-3D-1
  *Nset, nset=ASSEMBLY_NUM987PART-1-1
  *Nset, nset=ASSEMBLY_NUM987RVE-3D-1
  *Nset, nset=ASSEMBLY_NUM988PART-1-1
  *Nset, nset=ASSEMBLY_NUM988RVE-3D-1
  *Nset, nset=ASSEMBLY_NUM989PART-1-1
  *Nset, nset=ASSEMBLY_NUM98PART-1-1
  *Nset, nset=ASSEMBLY_NUM990PART-1-1
  *Nset, nset=ASSEMBLY_NUM991PART-1-1
  *Nset, nset=ASSEMBLY_NUM992PART-1-1
  *Nset, nset=ASSEMBLY_NUM993PART-1-1
  *Nset, nset=ASSEMBLY_NUM994PART-1-1
  *Nset, nset=ASSEMBLY_NUM995PART-1-1
  *Nset, nset=ASSEMBLY_NUM996PART-1-1
  *Nset, nset=ASSEMBLY_NUM997PART-1-1
  *Nset, nset=ASSEMBLY_NUM998PART-1-1
  *Nset, nset=ASSEMBLY_NUM999PART-1-1
  *Nset, nset=ASSEMBLY_NUM99PART-1-1
  *Nset, nset=ASSEMBLY_NUM9PART-1-1
  *Nset, nset=ASSEMBLY_NUM9RVE-3D-1
  *Nset, nset=ASSEMBLY_REFMACRO1
  *Nset, nset=ASSEMBLY_REFMACRO2
  *Nset, nset=ASSEMBLY_REFMACRO3
  *Nset, nset=ASSEMBLY_SET-14065
  *Nset, nset=ASSEMBLY_SET-14066
  *Nset, nset=ASSEMBLY_SET-14067
  *Nset, nset=ASSEMBLY_SET-9392
  *Nset, nset=ASSEMBLY_SET-9393
  *Nset, nset=ASSEMBLY_SET-9394
  *Nset, nset=ASSEMBLY_SET-RP
  *orientation, name=ASSEMBLY_PART-1-1_ORI-1
  *cohesivesection, elset=ASSEMBLY_PART-1-1_SET-3, response=TRACTIONSEPARATION, controls=EC-1, material=M-INTERPHASE
  *material, name=M-FIBER
  *density
  *elastic
  *material, name=M-INTERPHASE
  *damageinitiation, criterion=QUADS
  *damageevolution, type=ENERGY, power=1.2, mixedmodebehavior=BK
  *density
  *elastic, type=TRACTION
  *material, name=M-MATRIX
  *density
  *elastic
  *concretedamagedplasticity
  *concretecompressionhardening
  *concretetensionstiffening, type=GFI
  *concretecompressiondamage
  *concretetensiondamage, type=DISPLACEMENT
  *orientation, name=ASSEMBLY_PART-1-1_ORI-1
  *solidsection, elset=ASSEMBLY_PART-1-1_SET-2, orientation=ASSEMBLY_PART-1-1_ORI-1, material=M-FIBER
  *solidsection, elset=ASSEMBLY_PART-1-1__I3, orientation=ASSEMBLY_PART-1-1_ORI-1, material=M-MATRIX
  *solidsection, elset=ASSEMBLY_PART-1-1__I4, orientation=ASSEMBLY_PART-1-1_ORI-1, material=M-MATRIX, controls=EC-2
  *sectioncontrols, name=EC-1, viscosity=0.0001, elementdeletion=YES
  *sectioncontrols, name=EC-2, elementdeletion=NO
  *boundary
  *boundary
  *boundary
  *boundary
  *boundary
  *boundary
  *boundary
  *boundary
  *equation
  *equation
  *equation
  *equation
  *equation
  *equation
  *equation
  *equation
  *equation
  *equation
  *equation
  *equation
  *equation
  *equation
  *equation
  *equation
  *equation
  *equation
  *equation
  *equation
  *equation
  *equation
  *equation
  *equation
  *equation
  *equation
  *equation
  *equation
  *equation
  *equation
  *equation
  *equation
  *equation
  *equation
  *equation
  *equation
  *equation
  *equation
  *equation
  *equation
  *equation
  *equation
  *equation
  *equation
  *equation
  *equation
  *equation
  *equation
  *equation
  *equation

 ***NOTE: DUE TO EXCESSIVE REPORTING, THE ECHO OF THE *MPC and *EQUATION 
          OPTIONS IS BEING SUPPRESSED.
  *solidsection, elset=ASSEMBLY_PART-1-1_SET-2, orientation=ASSEMBLY_PART-1-1_ORI-1, material=M-FIBER
  *solidsection, elset=ASSEMBLY_PART-1-1__I3, orientation=ASSEMBLY_PART-1-1_ORI-1, material=M-MATRIX
  *solidsection, elset=ASSEMBLY_PART-1-1__I4, orientation=ASSEMBLY_PART-1-1_ORI-1, material=M-MATRIX, controls=EC-2
  *cohesivesection, elset=ASSEMBLY_PART-1-1_SET-3, response=TRACTIONSEPARATION, controls=EC-1, material=M-INTERPHASE
  *output, field, timeinterval=0.05
  *output, history
  *elementoutput, directions=YES
  *output, field, timeinterval=0.05
  *output, history
  *elementoutput, directions=YES
  *output, field, timeinterval=0.05
  *output, history
  *elementoutput, directions=YES

 ***WARNING: THE THICKNESS IS NOT SPECIFIED OR THE SPECIFIED THICKNESS IS 
             SMALLER THAN OR EQUAL TO ZERO FOR ELEMENT 1 INSTANCE PART-1-1. THE 
             DEFAULT VALUE, 1.0, WILL BE USED

 ***WARNING: MPCS (EXTERNAL or INTERNAL, including those generated from rigid 
             body definitions), KINEMATIC COUPLINGS, AND/OR EQUATIONS WILL 
             ACTIVATE ADDITIONAL DEGREES OF FREEDOM
  *Step, name=Step-1, nlgeom=YES, inc=1000, convertsdi=NO
  *output, field, timeinterval=0.05
  *output, history
  *Step, name=Step-1, nlgeom=YES, inc=1000, convertsdi=NO
  *Step, name=Step-1, nlgeom=YES, inc=1000, convertsdi=NO
  *static, stabilize, factor=0.002, allsdtol=0.05, continue=NO
  *boundary
  *boundary
  *boundary
  *output, field, timeinterval=0.05
  *nodeoutput
  *elementoutput, directions=YES
  *output, history
  *energyoutput
  *nodeoutput, nset=ASSEMBLY_SET-RP
  *endstep

 ***WARNING: OUTPUT AT EXACT, PREDEFINED TIME POINTS WAS REQUESTED IN THIS 
             STEP. IN ORDER TO WRITE OUTPUT AT EXACT TIME POINTS SPECIFIED, 
             Abaqus MIGHT USE TIME INCREMENTS SMALLER THAN THE MINIMUM TIME 
             INCREMENT ALLOWED IN THE STEP. IN ADDITION, THE NUMBER OF 
             INCREMENTS REQUIRED TO COMPLETE THE STEP WILL IN GENERAL INCREASE.

 ***WARNING: THE REQUEST FOR MISES OUTPUT WILL BE REPLACED BY A REQUEST FOR S 
             OUTPUT

 ***WARNING: OUTPUT REQUEST DAMAGEC IS NOT AVAILABLE FOR ELEMENT TYPE COH3D8

 ***WARNING: OUTPUT REQUEST DAMAGET IS NOT AVAILABLE FOR ELEMENT TYPE COH3D8

 ***WARNING: OUTPUT REQUEST DAMAGEC IS NOT AVAILABLE FOR THE MATERIAL FOR 
             ELEMENT TYPE C3D6

 ***WARNING: OUTPUT REQUEST DAMAGET IS NOT AVAILABLE FOR THE MATERIAL FOR 
             ELEMENT TYPE C3D6

 ***WARNING: OUTPUT REQUEST SDEG IS NOT AVAILABLE FOR THE MATERIAL FOR ELEMENT 
             TYPE C3D6

 ***WARNING: OUTPUT REQUEST STATUS IS NOT AVAILABLE FOR THE MATERIAL FOR 
             ELEMENT TYPE C3D6

 ***WARNING: OUTPUT REQUEST STATUS IS NOT AVAILABLE FOR THE MATERIAL FOR 
             ELEMENT TYPE C3D6

 ***WARNING: OUTPUT REQUEST STATUS IS NOT AVAILABLE FOR THE MATERIAL FOR 
             ELEMENT TYPE C3D8
  *boundary
  *Step, name=Step-1, nlgeom=YES, inc=1000, convertsdi=NO
  *static, stabilize, factor=0.002, allsdtol=0.05, continue=NO
  *boundary
  *boundary
  *boundary
  *endstep
  
                               E L E M E N T   Q U A L I T Y  C H E C K S        
  
  
 ***NOTES: DISTORTED ISOPARAMETRIC ELEMENTS: ANGLE BETWEEN ISOPARAMETRIC LINES 
           IS LESS THAN 45 DEGREES OR GREATER THAN 135 DEGREES.
  
           TETRAHEDRAL QUALITY MEASURE: VOLUME OF TETRAHEDRON DIVIDED BY THE 
           VOLUME OF EQUILATERAL TETRAHEDRON WITH SAME CIRCUMSPHERE RADIUS; 
           0 FOR DEGENERATE TETRAHEDRON AND 1 FOR EQUILATERIAL TETRAHEDRON. IT 
           IS RECOMMENDED THAT THE TETRAHEDRAL QUALITY MEASURE BE GREATER THAN 
           0.02, THE MIN INTERIOR (DIHEDRAL) ANGLE BE GREATER THAN 10 DEGREES, 
           AND THE MAX INTERIOR (DIHEDRAL) ANGLE BE LESS THAN 160 DEGREES. 
  
           MODIFIED TETRAHEDRAL QUALITY MEASURE: ANGLES BETWEEN THE TWO LINE 
           SEGMENTS ON EACH EDGE; THE EDGES OF MODIFIED TETRAHEDRAL SHOULD BE 
           AS STRAIGHT AS POSSIBLE. IT IS RECOMMENDED THAT THE ANGLE BETWEEN 
           THE TWO LINE SEGMENTS ON EACH EDGE IS BETWEEN 160 AND 180 DEGREES. 
  
           TRIANGULAR QUALITY MEASURE: AREA OF TRIANGLE DIVIDED BY THE AREA OF 
           EQUILATERAL TRIANGLE WITH SAME CIRCUMCIRCLE RADIUS; 0 FOR DEGENERATE 
           TRIANGLE AND 1 FOR EQUILATERAL TRIANGLE. IT IS RECOMMENDED THAT THE
           TRIANGULAR QUALITY MEASURE BE GREATER THAN 0.01, THE MIN INTERIOR 
           ANGLE BE GREATER THAN 10 DEGREES, AND THE MAX INTERIOR ANGLE BE LESS 
           THAN 160 DEGREES. 
  
           NODAL ADJUSTMENTS ARISING FROM CONTACT INTERACTIONS AND/OR TIE 
           CONSTRAINTS CAN CAUSE SEVERE ELEMENT DISTORTION. IT MAY BE NECESSARY 
           TO REMESH IN ORDER TO REDUCE THE AMOUNT OF ADJUSTMENT. 

 ***WARNING: 4 elements are distorted. Either the isoparametric angles are out 
             of the suggested limits or the triangular or tetrahedral quality 
             measure is bad. The elements have been identified in element set 
             WarnElemDistorted.
  
 --------------------------------------------------------------------------------
 Distorted isoparametric elements
  
      Element        Min/max angle   Adjusted nodes 
 ------------------ ---------------- -------------- 
       PART-1-1.987          41.9758       NO       
      PART-1-1.1046          42.4543       NO       
      PART-1-1.1330          37.9854       NO       
      PART-1-1.1421          38.6364       NO       
  

 ***WARNING: DEGREE OF FREEDOM 1 HAS BEEN ELIMINATED AT NODE 34 INSTANCE 
             PART-1-1 BOUNDARY CONDITION TYPE PINNED MAY NOT BE APPLIED AT THIS 
             NODE

 ***WARNING: DEGREE OF FREEDOM 2 HAS BEEN ELIMINATED AT NODE 34 INSTANCE 
             PART-1-1 BOUNDARY CONDITION TYPE PINNED MAY NOT BE APPLIED AT THIS 
             NODE

 ***WARNING: DEGREE OF FREEDOM 3 HAS BEEN ELIMINATED AT NODE 34 INSTANCE 
             PART-1-1 BOUNDARY CONDITION TYPE PINNED MAY NOT BE APPLIED AT THIS 
             NODE

 ***WARNING: 1 nodes have dof on which incorrect boundary conditions may have 
             been specified. The nodes have been identified in node set 
             WarnNodeBCIncorrectDof.



                            P R O B L E M   S I Z E


          NUMBER OF ELEMENTS IS                                  3292
          NUMBER OF NODES IS                                     4673
          NUMBER OF NODES DEFINED BY THE USER                    4673
          TOTAL NUMBER OF VARIABLES IN THE MODEL                14019
          (DEGREES OF FREEDOM PLUS MAX NO. OF ANY LAGRANGE MULTIPLIER
           VARIABLES. INCLUDE *PRINT,SOLVE=YES TO GET THE ACTUAL NUMBER.)



                              END OF USER INPUT PROCESSING



     JOB TIME SUMMARY
       USER TIME (SEC)      =   3.4000    
       SYSTEM TIME (SEC)    =  0.50000    
       TOTAL CPU TIME (SEC) =   3.9000    
       WALLCLOCK TIME (SEC) =          6
1

   Abaqus 6.14-4                                  Date 15-Oct-2017   Time 16:17:13
   For use at NTNU NORGES TEKNISK NATURVITENSKAPELIGE UNIVERSITET under license from Dassault Systemes or its subsidiary.

                                                                                               STEP    1  INCREMENT    1
                                                                                          TIME COMPLETED IN THIS STEP   0.00    


                        S T E P       1     S T A T I C   A N A L Y S I S


                                                                                          

     AUTOMATIC TIME CONTROL WITH -
          A SUGGESTED INITIAL TIME INCREMENT OF                1.000E-03
          AND A TOTAL TIME PERIOD OF                            1.00    
          THE MINIMUM TIME INCREMENT ALLOWED IS                1.000E-12
          THE MAXIMUM TIME INCREMENT ALLOWED IS                0.100    

     LINEAR EQUATION SOLVER TYPE         DIRECT SPARSE

     ADAPTIVE AUTOMATIC STABILIZATION WITH 
INITIAL DAMPING FACTOR =   2.000E-03

          LARGE DISPLACEMENT THEORY WILL BE USED

          UNSYMMETRIC MATRIX STORAGE AND SOLUTION WILL BE USED



                    TOTAL MASS OF MODEL

                      5.2484510E-03


                    LOCATION OF THE CENTER OF MASS OF THE MODEL

                       54.99797           55.29085          0.1000000    


                    MOMENTS OF INERTIA ABOUT THE ORIGIN
                           I(XX)               I(YY)               I(ZZ)

                       21.40536           21.28215           42.68730    


                    PRODUCTS OF INERTIA ABOUT THE ORIGIN
                           I(XY)               I(XZ)               I(YZ)

                      -15.86712         -2.8865417E-02     -2.9019131E-02


                    MOMENTS OF INERTIA ABOUT THE CENTER OF MASS
                           I(XX)               I(YY)               I(ZZ)

                       5.360384           5.406706           10.76699    


                    PRODUCTS OF INERTIA ABOUT THE CENTER OF MASS
                           I(XY)               I(XZ)               I(YZ)

                      9.2808697E-02     -8.9879632E-12     -7.4089242E-12
  
                   M E M O R Y   E S T I M A T E
  
 PROCESS      FLOATING PT       MINIMUM MEMORY        MEMORY TO
              OPERATIONS           REQUIRED          MINIMIZE I/O
             PER ITERATION           (MB)               (MB)
  
     1         1.85E+008               20                 44
  
 NOTE:
      (1) SINCE ABAQUS DOES NOT PRE-ALLOCATE MEMORY AND ONLY ALLOCATES MEMORY AS NEEDED DURING THE ANALYSIS,
          THE MEMORY REQUIREMENT PRINTED HERE CAN ONLY BE VIEWED AS A GENERAL GUIDELINE BASED ON THE BEST
          KNOWLEDGE AVAILABLE AT THE BEGINNING OF A STEP BEFORE THE SOLUTION PROCESS HAS BEGUN.
      (2) THE ESTIMATE IS NORMALLY UPDATED AT THE BEGINNING OF EVERY STEP. IT IS THE MAXIMUM VALUE OF THE
          ESTIMATE FROM THE CURRENT STEP TO THE LAST STEP OF THE ANALYSIS, WITH UNSYMMETRIC SOLUTION TAKEN
          INTO ACCOUNT IF APPLICABLE. 
      (3) SINCE THE ESTIMATE IS BASED ON THE ACTIVE DEGREES OF FREEDOM IN THE FIRST ITERATION OF THE 
          CURRENT STEP, THE MEMORY ESTIMATE MIGHT BE SIGNIFICANTLY DIFFERENT THAN ACTUAL USAGE FOR 
          PROBLEMS WITH SUBSTANTIAL CHANGES IN ACTIVE DEGREES OF FREEDOM BETWEEN STEPS (OR EVEN WITHIN
          THE SAME STEP). EXAMPLES ARE: PROBLEMS WITH SIGNIFICANT CONTACT CHANGES, PROBLEMS WITH MODEL
          CHANGE, PROBLEMS WITH BOTH STATIC STEP AND STEADY STATE DYNAMIC PROCEDURES WHERE ACOUSTIC 
          ELEMENTS WILL ONLY BE ACTIVATED IN THE STEADY STATE DYNAMIC STEPS.
      (4) FOR MULTI-PROCESS EXECUTION, THE ESTIMATED VALUE OF FLOATING POINT OPERATIONS FOR EACH PROCESS
          IS BASED ON AN INITIAL SCHEDULING OF OPERATIONS AND MIGHT NOT REFLECT THE ACTUAL FLOATING 
          POINT OPERATIONS COMPLETED ON EACH PROCESS. OPERATIONS ARE DYNAMICALLY BALANCED DURING EXECUTION, 
          SO THE ACTUAL BALANCE OF OPERATIONS BETWEEN PROCESSES IS EXPECTED TO BE BETTER THAN THE ESTIMATE
          PRINTED HERE.
      (5) THE UPPER LIMIT OF MEMORY THAT CAN BE ALLOCATED BY ABAQUS WILL IN GENERAL DEPEND ON THE VALUE OF
          THE "MEMORY" PARAMETER AND THE AMOUNT OF PHYSICAL MEMORY AVAILABLE ON THE MACHINE. PLEASE SEE
          THE "ABAQUS ANALYSIS USER'S MANUAL" FOR MORE DETAILS. THE ACTUAL USAGE OF MEMORY AND OF DISK
          SPACE FOR SCRATCH DATA WILL DEPEND ON THIS UPPER LIMIT AS WELL AS THE MEMORY REQUIRED TO MINIMIZE
          I/O. IF THE MEMORY UPPER LIMIT IS GREATER THAN THE MEMORY REQUIRED TO MINIMIZE I/O, THEN THE ACTUAL
          MEMORY USAGE WILL BE CLOSE TO THE ESTIMATED "MEMORY TO MINIMIZE I/O" VALUE, AND THE SCRATCH DISK
          USAGE WILL BE CLOSE-TO-ZERO; OTHERWISE, THE ACTUAL MEMORY USED WILL BE CLOSE TO THE PREVIOUSLY
          MENTIONED MEMORY LIMIT, AND THE SCRATCH DISK USAGE WILL BE ROUGHLY PROPORTIONAL TO THE DIFFERENCE
          BETWEEN THE ESTIMATED "MEMORY TO MINIMIZE I/O" AND THE MEMORY UPPER LIMIT. HOWEVER ACCURATE
          ESTIMATE OF THE SCRATCH DISK SPACE IS NOT POSSIBLE.
      (6) USING "*RESTART, WRITE" CAN GENERATE A LARGE AMOUNT OF DATA WRITTEN IN THE WORK DIRECTORY.



                              ANALYSIS COMPLETE
                              WITH      2 ERROR MESSAGES ON THE MSG FILE
                              AND      17 WARNING MESSAGES ON THE DAT FILE
                              AND     975 WARNING MESSAGES ON THE MSG FILE
                                      947 WARNINGS ARE FOR NEGATIVE EIGENVALUES



     JOB TIME SUMMARY
       USER TIME (SEC)      =   2425.2    
       SYSTEM TIME (SEC)    =   48.100    
       TOTAL CPU TIME (SEC) =   2473.3    
       WALLCLOCK TIME (SEC) =       2491
