 Abaqus/Standard 6.14-4                  DATE 15-Oct-2017 TIME 16:17:14
 SUMMARY OF JOB INFORMATION:
 STEP  INC ATT SEVERE EQUIL TOTAL  TOTAL      STEP       INC OF       DOF    IF
               DISCON ITERS ITERS  TIME/    TIME/LPF    TIME/LPF    MONITOR RIKS
               ITERS               FREQ
   1     1   1     0     2     2  0.00100    0.00100    0.001000  
   1     2   1     0     4     4  0.00200    0.00200    0.001000  
   1     3   1     0     3     3  0.00350    0.00350    0.001500  
   1     4   1     0     3     3  0.00575    0.00575    0.002250  
   1     5   1     0     3     3  0.00913    0.00913    0.003375  
   1     6   1     0     3     3  0.0142     0.0142     0.005063  
   1     7   1     0     6     6  0.0218     0.0218     0.007594  
   1     8   1     0     2     2  0.0294     0.0294     0.007594  
   1     9   1     0     1     1  0.0370     0.0370     0.007594  
   1    10   1     0     1     1  0.0500     0.0500     0.01303   
   1    11   1     0     1     1  0.0695     0.0695     0.01955   
   1    12   1     0     1     1  0.100      0.100      0.03045   
   1    13   1     0     8     8  0.150      0.150      0.05000   
   1    14   1     0     8     8  0.200      0.200      0.05000   
   1    15   1     0    10    10  0.250      0.250      0.05000   
   1    16   1     0    15    15  0.300      0.300      0.05000   
   1    17   1U    0     9     9  0.300      0.300      0.03750   
   1    17   2U    0     9     9  0.300      0.300      0.01875   
   1    17   3     0    15    15  0.309      0.309      0.009375  
   1    18   1     0    10    10  0.316      0.316      0.007031  
   1    19   1     0    10    10  0.323      0.323      0.007031  
   1    20   1     0    11    11  0.330      0.330      0.007031  
   1    21   1     0     9     9  0.336      0.336      0.005273  
   1    22   1     0    10    10  0.341      0.341      0.005273  
   1    23   1     0     6     6  0.346      0.346      0.005273  
   1    24   1     0     5     5  0.350      0.350      0.003711  
   1    25   1     0     9     9  0.355      0.355      0.005273  
   1    26   1     0     7     7  0.361      0.361      0.005273  
   1    27   1     0    10    10  0.366      0.366      0.005273  
   1    28   1     0    10    10  0.371      0.371      0.005273  
   1    29   1     0    10    10  0.376      0.376      0.005273  
   1    30   1     0     9     9  0.382      0.382      0.005273  
   1    31   1     0    10    10  0.387      0.387      0.005273  
   1    32   1     0    10    10  0.392      0.392      0.005273  
   1    33   1     0    10    10  0.397      0.397      0.005273  
   1    34   1     0     7     7  0.400      0.400      0.002539  
   1    35   1     0    10    10  0.405      0.405      0.005273  
   1    36   1     0    10    10  0.411      0.411      0.005273  
   1    37   1     0    10    10  0.416      0.416      0.005273  
   1    38   1U    0     9     9  0.416      0.416      0.005273  
   1    38   2     0     8     8  0.418      0.418      0.002637  
   1    39   1     0     5     5  0.421      0.421      0.002637  
   1    40   1     0     9     9  0.424      0.424      0.002637  
   1    41   1     0     5     5  0.426      0.426      0.002637  
   1    42   1     0     4     4  0.429      0.429      0.002637  
   1    43   1     0     3     3  0.432      0.432      0.002637  
   1    44   1     0     4     4  0.436      0.436      0.003955  
   1    45   1     0    10    10  0.442      0.442      0.005933  
   1    46   1     0    10    10  0.447      0.447      0.005933  
   1    47   1     0     6     6  0.450      0.450      0.002539  
   1    48   1     0     8     8  0.456      0.456      0.005933  
   1    49   1     0    12    12  0.462      0.462      0.005933  
   1    50   1     0     4     4  0.466      0.466      0.004449  
   1    51   1     0     9     9  0.471      0.471      0.004449  
   1    52   1     0    10    10  0.475      0.475      0.004449  
   1    53   1     0     9     9  0.480      0.480      0.004449  
   1    54   1     0     6     6  0.484      0.484      0.004449  
   1    55   1     0    10    10  0.489      0.489      0.004449  
   1    56   1     0    10    10  0.493      0.493      0.004449  
   1    57   1     0     7     7  0.497      0.497      0.004449  
   1    58   1     0     8     8  0.500      0.500      0.002539  
   1    59   1     0     9     9  0.504      0.504      0.004449  
   1    60   1     0     7     7  0.509      0.509      0.004449  
   1    61   1U    0     9     9  0.509      0.509      0.004449  
   1    61   2     0     7     7  0.511      0.511      0.002225  
   1    62   1     0     5     5  0.513      0.513      0.002225  
   1    63   1     0     5     5  0.516      0.516      0.002225  
   1    64   1     0     5     5  0.518      0.518      0.002225  
   1    65   1     0     7     7  0.520      0.520      0.002225  
   1    66   1     0     5     5  0.522      0.522      0.002225  
   1    67   1     0     7     7  0.524      0.524      0.002225  
   1    68   1U    0     9     9  0.524      0.524      0.002225  
   1    68   2     0     7     7  0.526      0.526      0.001112  
   1    69   1     0     6     6  0.527      0.527      0.001112  
   1    70   1     0     5     5  0.528      0.528      0.001112  
   1    71   1     0     5     5  0.529      0.529      0.001112  
   1    72   1     0     3     3  0.530      0.530      0.001112  
   1    73   1     0     3     3  0.531      0.531      0.001112  
   1    74   1     0     3     3  0.533      0.533      0.001669  
   1    75   1     0     9     9  0.535      0.535      0.002503  
   1    76   1     0     9     9  0.538      0.538      0.002503  
   1    77   1     0     7     7  0.540      0.540      0.002503  
   1    78   1     0     8     8  0.543      0.543      0.002503  
   1    79   1     0     8     8  0.545      0.545      0.002503  
   1    80   1     0    11    11  0.548      0.548      0.002503  
   1    81   1     0    10    10  0.550      0.550      0.002168  
   1    82   1     0    13    13  0.552      0.552      0.002168  
   1    83   1     0    13    13  0.554      0.554      0.001626  
   1    84   1     0    11    11  0.555      0.555      0.001220  
   1    85   1     0     9     9  0.556      0.556      0.0009147 
   1    86   1     0    10    10  0.557      0.557      0.0009147 
   1    87   1     0    10    10  0.558      0.558      0.0009147 
   1    88   1     0    10    10  0.559      0.559      0.0009147 
   1    89   1     0     8     8  0.560      0.560      0.0009147 
   1    90   1     0     8     8  0.561      0.561      0.0009147 
   1    91   1     0     9     9  0.561      0.561      0.0009147 
   1    92   1     0     8     8  0.562      0.562      0.0009147 
   1    93   1     0     8     8  0.563      0.563      0.0009147 
   1    94   1     0     7     7  0.564      0.564      0.0009147 
   1    95   1     0     8     8  0.565      0.565      0.0009147 
   1    96   1     0     6     6  0.566      0.566      0.0009147 
   1    97   1     0     6     6  0.567      0.567      0.0009147 
   1    98   1     0     6     6  0.568      0.568      0.0009147 
   1    99   1     0     6     6  0.569      0.569      0.0009147 
   1   100   1     0     6     6  0.570      0.570      0.0009147 
   1   101   1     0     7     7  0.571      0.571      0.0009147 
   1   102   1     0     7     7  0.571      0.571      0.0009147 
   1   103   1     0     7     7  0.572      0.572      0.0009147 
   1   104   1     0     7     7  0.573      0.573      0.0009147 
   1   105   1     0     7     7  0.574      0.574      0.0009147 
   1   106   1     0     7     7  0.575      0.575      0.0009147 
   1   107   1     0     8     8  0.576      0.576      0.0009147 
   1   108   1     0     6     6  0.577      0.577      0.0009147 
   1   109   1     0     6     6  0.578      0.578      0.0009147 
   1   110   1     0     7     7  0.579      0.579      0.0009147 
   1   111   1     0     8     8  0.580      0.580      0.0009147 
   1   112   1     0    10    10  0.581      0.581      0.0009147 
   1   113   1     0     9     9  0.582      0.582      0.0009147 
   1   114   1     0    10    10  0.582      0.582      0.0009147 
   1   115   1     0    10    10  0.583      0.583      0.0009147 
   1   116   1     0    10    10  0.584      0.584      0.0009147 
   1   117   1     0    11    11  0.585      0.585      0.0009147 
   1   118   1U    0     9     9  0.585      0.585      0.0006861 
   1   118   2     0     2     2  0.585      0.585      0.0001715 
   1   119   1     0     6     6  0.586      0.586      0.0001715 
   1   120   1     0     6     6  0.586      0.586      0.0001715 
   1   121   1     0     6     6  0.586      0.586      0.0001715 
   1   122   1     0     6     6  0.586      0.586      0.0001715 
   1   123   1U    0     1     1  0.586      0.586      0.0001715 
   1   123   2     0     3     3  0.586      0.586      4.288e-005
   1   124   1     0     4     4  0.586      0.586      4.288e-005
   1   125   1     0     4     4  0.586      0.586      6.432e-005
   1   126   1     0     4     4  0.586      0.586      9.648e-005
   1   127   1     0     6     6  0.586      0.586      0.0001447 
   1   128   1     0     5     5  0.587      0.587      0.0001447 
   1   129   1     0     5     5  0.587      0.587      0.0001447 
   1   130   1     0     5     5  0.587      0.587      0.0001447 
   1   131   1     0     6     6  0.587      0.587      0.0001447 
   1   132   1     0     6     6  0.587      0.587      0.0001447 
   1   133   1     0     6     6  0.587      0.587      0.0001447 
   1   134   1     0     6     6  0.587      0.587      0.0001447 
   1   135   1     0     6     6  0.588      0.588      0.0001447 
   1   136   1     0     6     6  0.588      0.588      0.0001447 
   1   137   1     0     6     6  0.588      0.588      0.0001447 
   1   138   1     0     6     6  0.588      0.588      0.0001447 
   1   139   1     0     7     7  0.588      0.588      0.0001447 
   1   140   1     0     7     7  0.588      0.588      0.0001447 
   1   141   1U    0     4     4  0.588      0.588      0.0001447 
   1   141   2     0     3     3  0.588      0.588      3.618e-005
   1   142   1     0     4     4  0.588      0.588      3.618e-005
   1   143   1     0     4     4  0.588      0.588      5.427e-005
   1   144   1     0     6     6  0.589      0.589      8.140e-005
   1   145   1     0     6     6  0.589      0.589      8.140e-005
   1   146   1     0     6     6  0.589      0.589      8.140e-005
   1   147   1     0     6     6  0.589      0.589      8.140e-005
   1   148   1     0     6     6  0.589      0.589      8.140e-005
   1   149   1     0     6     6  0.589      0.589      8.140e-005
   1   150   1     0     6     6  0.589      0.589      8.140e-005
   1   151   1     0     6     6  0.589      0.589      8.140e-005
   1   152   1     0     6     6  0.589      0.589      8.140e-005
   1   153   1     0     6     6  0.589      0.589      8.140e-005
   1   154   1     0     6     6  0.589      0.589      8.140e-005
   1   155   1     0     6     6  0.589      0.589      8.140e-005
   1   156   1     0     6     6  0.590      0.590      8.140e-005
   1   157   1     0     6     6  0.590      0.590      8.140e-005
   1   158   1     0     6     6  0.590      0.590      8.140e-005
   1   159   1     0     6     6  0.590      0.590      8.140e-005
   1   160   1     0     6     6  0.590      0.590      8.140e-005
   1   161   1     0     6     6  0.590      0.590      8.140e-005
   1   162   1     0     6     6  0.590      0.590      8.140e-005
   1   163   1     0     6     6  0.590      0.590      8.140e-005
   1   164   1     0     6     6  0.590      0.590      8.140e-005
   1   165   1     0     6     6  0.590      0.590      8.140e-005
   1   166   1     0     6     6  0.590      0.590      8.140e-005
   1   167   1     0     4     4  0.590      0.590      8.140e-005
   1   168   1     0     4     4  0.590      0.590      8.140e-005
   1   169   1     0     4     4  0.591      0.591      0.0001221 
   1   170   1     0     4     4  0.591      0.591      0.0001832 
   1   171   1     0     6     6  0.591      0.591      0.0002747 
   1   172   1     0     6     6  0.591      0.591      0.0002747 
   1   173   1     0     5     5  0.592      0.592      0.0002747 
   1   174   1     0     6     6  0.592      0.592      0.0002747 
   1   175   1     0     6     6  0.592      0.592      0.0002747 
   1   176   1     0     6     6  0.592      0.592      0.0002747 
   1   177   1     0     6     6  0.593      0.593      0.0002747 
   1   178   1     0     6     6  0.593      0.593      0.0002747 
   1   179   1     0     6     6  0.593      0.593      0.0002747 
   1   180   1     0     6     6  0.594      0.594      0.0002747 
   1   181   1     0     6     6  0.594      0.594      0.0002747 
   1   182   1     0     6     6  0.594      0.594      0.0002747 
   1   183   1     0     6     6  0.594      0.594      0.0002747 
   1   184   1     0     9     9  0.595      0.595      0.0002747 
   1   185   1     0     7     7  0.595      0.595      0.0002747 
   1   186   1     0     6     6  0.595      0.595      0.0002747 
   1   187   1     0     6     6  0.595      0.595      0.0002747 
   1   188   1     0     7     7  0.596      0.596      0.0002747 
   1   189   1     0     7     7  0.596      0.596      0.0002747 
   1   190   1     0     7     7  0.596      0.596      0.0002747 
   1   191   1     0     7     7  0.597      0.597      0.0002747 
   1   192   1     0     7     7  0.597      0.597      0.0002747 
   1   193   1     0     7     7  0.597      0.597      0.0002747 
   1   194   1     0    10    10  0.597      0.597      0.0002747 
   1   195   1     0     7     7  0.598      0.598      0.0002747 
   1   196   1     0     6     6  0.598      0.598      0.0002747 
   1   197   1     0     7     7  0.598      0.598      0.0002747 
   1   198   1     0     7     7  0.598      0.598      0.0002747 
   1   199   1     0     5     5  0.599      0.599      0.0002747 
   1   200   1     0     7     7  0.599      0.599      0.0002747 
   1   201   1     0     7     7  0.599      0.599      0.0002747 
   1   202   1     0     7     7  0.600      0.600      0.0002747 
   1   203   1     0     7     7  0.600      0.600      0.0002747 
   1   204   1     0     4     4  0.600      0.600      0.0001362 
   1   205   1     0     7     7  0.600      0.600      0.0002747 
   1   206   1     0     7     7  0.601      0.601      0.0002747 
   1   207   1     0     7     7  0.601      0.601      0.0002747 
   1   208   1     0     7     7  0.601      0.601      0.0002747 
   1   209   1     0     7     7  0.601      0.601      0.0002747 
   1   210   1     0     7     7  0.602      0.602      0.0002747 
   1   211   1     0     7     7  0.602      0.602      0.0002747 
   1   212   1     0     7     7  0.602      0.602      0.0002747 
   1   213   1     0     7     7  0.602      0.602      0.0002747 
   1   214   1     0     7     7  0.603      0.603      0.0002747 
   1   215   1     0     7     7  0.603      0.603      0.0002747 
   1   216   1     0     7     7  0.603      0.603      0.0002747 
   1   217   1     0     7     7  0.604      0.604      0.0002747 
   1   218   1     0     7     7  0.604      0.604      0.0002747 
   1   219   1     0     7     7  0.604      0.604      0.0002747 
   1   220   1     0     7     7  0.604      0.604      0.0002747 
   1   221   1     0     7     7  0.605      0.605      0.0002747 
   1   222   1     0     7     7  0.605      0.605      0.0002747 
   1   223   1     0     7     7  0.605      0.605      0.0002747 
   1   224   1     0     7     7  0.605      0.605      0.0002747 
   1   225   1     0     6     6  0.606      0.606      0.0002747 
   1   226   1     0     5     5  0.606      0.606      0.0002747 
   1   227   1     0     7     7  0.606      0.606      0.0002747 
   1   228   1     0     7     7  0.607      0.607      0.0002747 
   1   229   1     0     6     6  0.607      0.607      0.0002747 
   1   230   1     0     7     7  0.607      0.607      0.0002747 
   1   231   1     0     7     7  0.607      0.607      0.0002747 
   1   232   1     0     7     7  0.608      0.608      0.0002747 
   1   233   1     0     7     7  0.608      0.608      0.0002747 
   1   234   1     0     7     7  0.608      0.608      0.0002747 
   1   235   1     0     6     6  0.609      0.609      0.0002747 
   1   236   1     0     6     6  0.609      0.609      0.0002747 
   1   237   1     0     6     6  0.609      0.609      0.0002747 
   1   238   1     0     6     6  0.609      0.609      0.0002747 
   1   239   1     0     6     6  0.610      0.610      0.0002747 
   1   240   1     0     6     6  0.610      0.610      0.0002747 
   1   241   1     0     6     6  0.610      0.610      0.0002747 
   1   242   1     0     6     6  0.610      0.610      0.0002747 
   1   243   1     0     6     6  0.611      0.611      0.0002747 
   1   244   1     0     6     6  0.611      0.611      0.0002747 
   1   245   1     0     6     6  0.611      0.611      0.0002747 
   1   246   1     0     6     6  0.612      0.612      0.0002747 
   1   247   1     0     6     6  0.612      0.612      0.0002747 
   1   248   1     0     6     6  0.612      0.612      0.0002747 
   1   249   1     0     5     5  0.612      0.612      0.0002747 
   1   250   1     0     5     5  0.613      0.613      0.0002747 
   1   251   1     0     5     5  0.613      0.613      0.0002747 
   1   252   1     0     6     6  0.613      0.613      0.0002747 
   1   253   1     0     6     6  0.613      0.613      0.0002747 
   1   254   1     0     6     6  0.614      0.614      0.0002747 
   1   255   1     0     6     6  0.614      0.614      0.0002747 
   1   256   1     0     6     6  0.614      0.614      0.0002747 
   1   257   1     0     6     6  0.615      0.615      0.0002747 
   1   258   1     0     6     6  0.615      0.615      0.0002747 
   1   259   1     0     6     6  0.615      0.615      0.0002747 
   1   260   1     0     6     6  0.615      0.615      0.0002747 
   1   261   1     0     6     6  0.616      0.616      0.0002747 
   1   262   1     0     6     6  0.616      0.616      0.0002747 
   1   263   1     0     6     6  0.616      0.616      0.0002747 
   1   264   1     0     6     6  0.616      0.616      0.0002747 
   1   265   1     0     6     6  0.617      0.617      0.0002747 
   1   266   1     0     6     6  0.617      0.617      0.0002747 
   1   267   1     0     6     6  0.617      0.617      0.0002747 
   1   268   1     0     6     6  0.618      0.618      0.0002747 
   1   269   1     0     6     6  0.618      0.618      0.0002747 
   1   270   1     0     6     6  0.618      0.618      0.0002747 
   1   271   1     0     6     6  0.618      0.618      0.0002747 
   1   272   1     0     6     6  0.619      0.619      0.0002747 
   1   273   1     0     6     6  0.619      0.619      0.0002747 
   1   274   1     0     6     6  0.619      0.619      0.0002747 
   1   275   1     0     6     6  0.620      0.620      0.0002747 
   1   276   1     0     6     6  0.620      0.620      0.0002747 
   1   277   1     0     7     7  0.620      0.620      0.0002747 
   1   278   1     0     6     6  0.620      0.620      0.0002747 
   1   279   1     0     6     6  0.621      0.621      0.0002747 
   1   280   1     0     6     6  0.621      0.621      0.0002747 
   1   281   1     0     6     6  0.621      0.621      0.0002747 
   1   282   1     0     6     6  0.621      0.621      0.0002747 
   1   283   1     0     6     6  0.622      0.622      0.0002747 
   1   284   1     0     6     6  0.622      0.622      0.0002747 
   1   285   1     0     6     6  0.622      0.622      0.0002747 
   1   286   1     0     6     6  0.623      0.623      0.0002747 
   1   287   1     0     6     6  0.623      0.623      0.0002747 
   1   288   1     0     7     7  0.623      0.623      0.0002747 
   1   289   1     0     7     7  0.623      0.623      0.0002747 
   1   290   1     0     7     7  0.624      0.624      0.0002747 
   1   291   1     0     7     7  0.624      0.624      0.0002747 
   1   292   1     0     7     7  0.624      0.624      0.0002747 
   1   293   1     0     7     7  0.624      0.624      0.0002747 
   1   294   1     0     7     7  0.625      0.625      0.0002747 
   1   295   1     0     7     7  0.625      0.625      0.0002747 
   1   296   1     0     7     7  0.625      0.625      0.0002747 
   1   297   1     0     7     7  0.626      0.626      0.0002747 
   1   298   1     0     7     7  0.626      0.626      0.0002747 
   1   299   1     0     7     7  0.626      0.626      0.0002747 
   1   300   1     0     7     7  0.626      0.626      0.0002747 
   1   301   1     0     7     7  0.627      0.627      0.0002747 
   1   302   1     0     7     7  0.627      0.627      0.0002747 
   1   303   1     0     7     7  0.627      0.627      0.0002747 
   1   304   1     0     7     7  0.627      0.627      0.0002747 
   1   305   1     0     7     7  0.628      0.628      0.0002747 
   1   306   1     0     7     7  0.628      0.628      0.0002747 
   1   307   1     0     7     7  0.628      0.628      0.0002747 
   1   308   1     0     7     7  0.629      0.629      0.0002747 
   1   309   1     0     7     7  0.629      0.629      0.0002747 
   1   310   1     0     7     7  0.629      0.629      0.0002747 
   1   311   1     0     7     7  0.629      0.629      0.0002747 
   1   312   1     0     7     7  0.630      0.630      0.0002747 
   1   313   1     0     7     7  0.630      0.630      0.0002747 
   1   314   1     0     9     9  0.630      0.630      0.0002747 
   1   315   1U    0     8     8  0.630      0.630      0.0002747 
   1   315   2     0     3     3  0.630      0.630      6.868e-005
   1   316   1     0     5     5  0.630      0.630      6.868e-005
   1   317   1     0     4     4  0.630      0.630      6.868e-005
   1   318   1     0     4     4  0.630      0.630      6.868e-005
   1   319   1     0     4     4  0.631      0.631      0.0001030 
   1   320   1     0     6     6  0.631      0.631      0.0001545 
   1   321   1     0     6     6  0.631      0.631      0.0001545 
   1   322   1     0     6     6  0.631      0.631      0.0001545 
   1   323   1     0     6     6  0.631      0.631      0.0001545 
   1   324   1     0     6     6  0.631      0.631      0.0001545 
   1   325   1     0     6     6  0.632      0.632      0.0001545 
   1   326   1     0     6     6  0.632      0.632      0.0001545 
   1   327   1     0     6     6  0.632      0.632      0.0001545 
   1   328   1     0     6     6  0.632      0.632      0.0001545 
   1   329   1     0     6     6  0.632      0.632      0.0001545 
   1   330   1     0     6     6  0.632      0.632      0.0001545 
   1   331   1     0     6     6  0.632      0.632      0.0001545 
   1   332   1     0     6     6  0.633      0.633      0.0001545 
   1   333   1     0     6     6  0.633      0.633      0.0001545 
   1   334   1     0     6     6  0.633      0.633      0.0001545 
   1   335   1     0     6     6  0.633      0.633      0.0001545 
   1   336   1     0     6     6  0.633      0.633      0.0001545 
   1   337   1     0     6     6  0.633      0.633      0.0001545 
   1   338   1     0     6     6  0.634      0.634      0.0001545 
   1   339   1     0     6     6  0.634      0.634      0.0001545 
   1   340   1     0     6     6  0.634      0.634      0.0001545 
   1   341   1     0     6     6  0.634      0.634      0.0001545 
   1   342   1     0     6     6  0.634      0.634      0.0001545 
   1   343   1     0     6     6  0.634      0.634      0.0001545 
   1   344   1     0     6     6  0.634      0.634      0.0001545 
   1   345   1     0     6     6  0.635      0.635      0.0001545 
   1   346   1     0     6     6  0.635      0.635      0.0001545 
   1   347   1     0     6     6  0.635      0.635      0.0001545 
   1   348   1     0     6     6  0.635      0.635      0.0001545 
   1   349   1     0     6     6  0.635      0.635      0.0001545 
   1   350   1     0     6     6  0.635      0.635      0.0001545 
   1   351   1     0     6     6  0.636      0.636      0.0001545 
   1   352   1     0     6     6  0.636      0.636      0.0001545 
   1   353   1     0     6     6  0.636      0.636      0.0001545 
   1   354   1     0     6     6  0.636      0.636      0.0001545 
   1   355   1     0     6     6  0.636      0.636      0.0001545 
   1   356   1     0     6     6  0.636      0.636      0.0001545 
   1   357   1     0     6     6  0.636      0.636      0.0001545 
   1   358   1     0     6     6  0.637      0.637      0.0001545 
   1   359   1     0     6     6  0.637      0.637      0.0001545 
   1   360   1     0     6     6  0.637      0.637      0.0001545 
   1   361   1     0     6     6  0.637      0.637      0.0001545 
   1   362   1     0     6     6  0.637      0.637      0.0001545 
   1   363   1     0     6     6  0.637      0.637      0.0001545 
   1   364   1     0     6     6  0.638      0.638      0.0001545 
   1   365   1     0     6     6  0.638      0.638      0.0001545 
   1   366   1     0     6     6  0.638      0.638      0.0001545 
   1   367   1     0     6     6  0.638      0.638      0.0001545 
   1   368   1     0     6     6  0.638      0.638      0.0001545 
   1   369   1     0     6     6  0.638      0.638      0.0001545 
   1   370   1     0     6     6  0.638      0.638      0.0001545 
   1   371   1     0     6     6  0.639      0.639      0.0001545 
   1   372   1     0     6     6  0.639      0.639      0.0001545 
   1   373   1     0     6     6  0.639      0.639      0.0001545 
   1   374   1     0     6     6  0.639      0.639      0.0001545 
   1   375   1     0     6     6  0.639      0.639      0.0001545 
   1   376   1     0     6     6  0.639      0.639      0.0001545 
   1   377   1     0     6     6  0.640      0.640      0.0001545 
   1   378   1     0     6     6  0.640      0.640      0.0001545 
   1   379   1     0     6     6  0.640      0.640      0.0001545 
   1   380   1     0     6     6  0.640      0.640      0.0001545 
   1   381   1     0     6     6  0.640      0.640      0.0001545 
   1   382   1     0     6     6  0.640      0.640      0.0001545 
   1   383   1     0     6     6  0.640      0.640      0.0001545 
   1   384   1     0     6     6  0.641      0.641      0.0001545 
   1   385   1     0     6     6  0.641      0.641      0.0001545 
   1   386   1     0     6     6  0.641      0.641      0.0001545 
   1   387   1     0     6     6  0.641      0.641      0.0001545 
   1   388   1     0     6     6  0.641      0.641      0.0001545 
   1   389   1     0     6     6  0.641      0.641      0.0001545 
   1   390   1     0     6     6  0.642      0.642      0.0001545 
   1   391   1     0     6     6  0.642      0.642      0.0001545 
   1   392   1     0     6     6  0.642      0.642      0.0001545 
   1   393   1     0     8     8  0.642      0.642      0.0001545 
   1   394   1     0     7     7  0.642      0.642      0.0001545 
   1   395   1     0     6     6  0.642      0.642      0.0001545 
   1   396   1     0     6     6  0.642      0.642      0.0001545 
   1   397   1     0     6     6  0.643      0.643      0.0001545 
   1   398   1     0     6     6  0.643      0.643      0.0001545 
   1   399   1     0     6     6  0.643      0.643      0.0001545 
   1   400   1     0     6     6  0.643      0.643      0.0001545 
   1   401   1     0     6     6  0.643      0.643      0.0001545 
   1   402   1     0     6     6  0.643      0.643      0.0001545 
   1   403   1     0     6     6  0.644      0.644      0.0001545 
   1   404   1     0     6     6  0.644      0.644      0.0001545 
   1   405   1     0     6     6  0.644      0.644      0.0001545 
   1   406   1     0     6     6  0.644      0.644      0.0001545 
   1   407   1     0     6     6  0.644      0.644      0.0001545 
   1   408   1     0     6     6  0.644      0.644      0.0001545 
   1   409   1     0     6     6  0.645      0.645      0.0001545 
   1   410   1     0     6     6  0.645      0.645      0.0001545 
   1   411   1     0     6     6  0.645      0.645      0.0001545 
   1   412   1     0     6     6  0.645      0.645      0.0001545 
   1   413   1     0     6     6  0.645      0.645      0.0001545 
   1   414   1     0     6     6  0.645      0.645      0.0001545 
   1   415   1     0     6     6  0.645      0.645      0.0001545 
   1   416   1     0     6     6  0.646      0.646      0.0001545 
   1   417   1     0     6     6  0.646      0.646      0.0001545 
   1   418   1     0     6     6  0.646      0.646      0.0001545 
   1   419   1     0     6     6  0.646      0.646      0.0001545 
   1   420   1     0     6     6  0.646      0.646      0.0001545 
   1   421   1     0     6     6  0.646      0.646      0.0001545 
   1   422   1     0     6     6  0.647      0.647      0.0001545 
   1   423   1     0     6     6  0.647      0.647      0.0001545 
   1   424   1     0     6     6  0.647      0.647      0.0001545 
   1   425   1     0     6     6  0.647      0.647      0.0001545 
   1   426   1     0     6     6  0.647      0.647      0.0001545 
   1   427   1     0     6     6  0.647      0.647      0.0001545 
   1   428   1     0     6     6  0.647      0.647      0.0001545 
   1   429   1     0     6     6  0.648      0.648      0.0001545 
   1   430   1     0     6     6  0.648      0.648      0.0001545 
   1   431   1     0     6     6  0.648      0.648      0.0001545 
   1   432   1     0     6     6  0.648      0.648      0.0001545 
   1   433   1     0     6     6  0.648      0.648      0.0001545 
   1   434   1     0     6     6  0.648      0.648      0.0001545 
   1   435   1     0     6     6  0.649      0.649      0.0001545 
   1   436   1     0     6     6  0.649      0.649      0.0001545 
   1   437   1     0     6     6  0.649      0.649      0.0001545 
   1   438   1     0     6     6  0.649      0.649      0.0001545 
   1   439   1     0     6     6  0.649      0.649      0.0001545 
   1   440   1     0     6     6  0.649      0.649      0.0001545 
   1   441   1     0     5     5  0.649      0.649      0.0001545 
   1   442   1     0     5     5  0.650      0.650      0.0001545 
   1   443   1     0     5     5  0.650      0.650      0.0001545 
   1   444   1     0     5     5  0.650      0.650      0.0001545 
   1   445   1     0     4     4  0.650      0.650      8.462e-005
   1   446   1     0     5     5  0.650      0.650      0.0001545 
   1   447   1     0     5     5  0.650      0.650      0.0001545 
   1   448   1     0     6     6  0.650      0.650      0.0001545 
   1   449   1     0     6     6  0.651      0.651      0.0001545 
   1   450   1     0     6     6  0.651      0.651      0.0001545 
   1   451   1     0     6     6  0.651      0.651      0.0001545 
   1   452   1     0     6     6  0.651      0.651      0.0001545 
   1   453   1     0     6     6  0.651      0.651      0.0001545 
   1   454   1     0     6     6  0.651      0.651      0.0001545 
   1   455   1     0     6     6  0.652      0.652      0.0001545 
   1   456   1     0     6     6  0.652      0.652      0.0001545 
   1   457   1     0     6     6  0.652      0.652      0.0001545 
   1   458   1     0     6     6  0.652      0.652      0.0001545 
   1   459   1     0     6     6  0.652      0.652      0.0001545 
   1   460   1     0     6     6  0.652      0.652      0.0001545 
   1   461   1     0     6     6  0.652      0.652      0.0001545 
   1   462   1     0     6     6  0.653      0.653      0.0001545 
   1   463   1     0     6     6  0.653      0.653      0.0001545 
   1   464   1     0     6     6  0.653      0.653      0.0001545 
   1   465   1     0     6     6  0.653      0.653      0.0001545 
   1   466   1     0     6     6  0.653      0.653      0.0001545 
   1   467   1     0     6     6  0.653      0.653      0.0001545 
   1   468   1     0     6     6  0.654      0.654      0.0001545 
   1   469   1     0     6     6  0.654      0.654      0.0001545 
   1   470   1     0     6     6  0.654      0.654      0.0001545 
   1   471   1     0     6     6  0.654      0.654      0.0001545 
   1   472   1     0     6     6  0.654      0.654      0.0001545 
   1   473   1     0     6     6  0.654      0.654      0.0001545 
   1   474   1     0     6     6  0.654      0.654      0.0001545 
   1   475   1     0     6     6  0.655      0.655      0.0001545 
   1   476   1     0     6     6  0.655      0.655      0.0001545 
   1   477   1     0     6     6  0.655      0.655      0.0001545 
   1   478   1     0     6     6  0.655      0.655      0.0001545 
   1   479   1     0     6     6  0.655      0.655      0.0001545 
   1   480   1     0     6     6  0.655      0.655      0.0001545 
   1   481   1     0     6     6  0.656      0.656      0.0001545 
   1   482   1     0     6     6  0.656      0.656      0.0001545 
   1   483   1     0     6     6  0.656      0.656      0.0001545 
   1   484   1     0     6     6  0.656      0.656      0.0001545 
   1   485   1     0     6     6  0.656      0.656      0.0001545 
   1   486   1     0     6     6  0.656      0.656      0.0001545 
   1   487   1     0     6     6  0.656      0.656      0.0001545 
   1   488   1     0     6     6  0.657      0.657      0.0001545 
   1   489   1     0     6     6  0.657      0.657      0.0001545 
   1   490   1     0     6     6  0.657      0.657      0.0001545 
   1   491   1     0     6     6  0.657      0.657      0.0001545 
   1   492   1     0     6     6  0.657      0.657      0.0001545 
   1   493   1     0     6     6  0.657      0.657      0.0001545 
   1   494   1     0     6     6  0.658      0.658      0.0001545 
   1   495   1     0     6     6  0.658      0.658      0.0001545 
   1   496   1     0     6     6  0.658      0.658      0.0001545 
   1   497   1     0     6     6  0.658      0.658      0.0001545 
   1   498   1     0     6     6  0.658      0.658      0.0001545 
   1   499   1     0     6     6  0.658      0.658      0.0001545 
   1   500   1     0     6     6  0.658      0.658      0.0001545 
   1   501   1     0     6     6  0.659      0.659      0.0001545 
   1   502   1     0     6     6  0.659      0.659      0.0001545 
   1   503   1     0     6     6  0.659      0.659      0.0001545 
   1   504   1     0     6     6  0.659      0.659      0.0001545 
   1   505   1     0     6     6  0.659      0.659      0.0001545 
   1   506   1     0     6     6  0.659      0.659      0.0001545 
   1   507   1     0     6     6  0.660      0.660      0.0001545 
   1   508   1     0     6     6  0.660      0.660      0.0001545 
   1   509   1     0     6     6  0.660      0.660      0.0001545 
   1   510   1     0     4     4  0.660      0.660      0.0001545 
   1   511   1     0     6     6  0.660      0.660      0.0001545 
   1   512   1     0     4     4  0.660      0.660      0.0001545 
   1   513   1     0     6     6  0.661      0.661      0.0001545 
   1   514   1     0     4     4  0.661      0.661      0.0001545 
   1   515   1     0     6     6  0.661      0.661      0.0001545 
   1   516   1     0     6     6  0.661      0.661      0.0001545 
   1   517   1     0     6     6  0.661      0.661      0.0001545 
   1   518   1     0     6     6  0.661      0.661      0.0001545 
   1   519   1     0     6     6  0.661      0.661      0.0001545 
   1   520   1     0     6     6  0.662      0.662      0.0001545 
   1   521   1     0     6     6  0.662      0.662      0.0001545 
   1   522   1     0     6     6  0.662      0.662      0.0001545 
   1   523   1     0     6     6  0.662      0.662      0.0001545 
   1   524   1     0     6     6  0.662      0.662      0.0001545 
   1   525   1     0     6     6  0.662      0.662      0.0001545 
   1   526   1     0     6     6  0.663      0.663      0.0001545 
   1   527   1     0     6     6  0.663      0.663      0.0001545 
   1   528   1     0     6     6  0.663      0.663      0.0001545 
   1   529   1     0     6     6  0.663      0.663      0.0001545 
   1   530   1     0     6     6  0.663      0.663      0.0001545 
   1   531   1     0     6     6  0.663      0.663      0.0001545 
   1   532   1     0     6     6  0.663      0.663      0.0001545 
   1   533   1     0     6     6  0.664      0.664      0.0001545 
   1   534   1     0     6     6  0.664      0.664      0.0001545 
   1   535   1     0     6     6  0.664      0.664      0.0001545 
   1   536   1     0     6     6  0.664      0.664      0.0001545 
   1   537   1     0     6     6  0.664      0.664      0.0001545 
   1   538   1     0     6     6  0.664      0.664      0.0001545 
   1   539   1     0     6     6  0.665      0.665      0.0001545 
   1   540   1     0     6     6  0.665      0.665      0.0001545 
   1   541   1     0     6     6  0.665      0.665      0.0001545 
   1   542   1     0     6     6  0.665      0.665      0.0001545 
   1   543   1     0     6     6  0.665      0.665      0.0001545 
   1   544   1     0     6     6  0.665      0.665      0.0001545 
   1   545   1     0     6     6  0.665      0.665      0.0001545 
   1   546   1     0     6     6  0.666      0.666      0.0001545 
   1   547   1     0     6     6  0.666      0.666      0.0001545 
   1   548   1     0     6     6  0.666      0.666      0.0001545 
   1   549   1     0     6     6  0.666      0.666      0.0001545 
   1   550   1     0     6     6  0.666      0.666      0.0001545 
   1   551   1     0     6     6  0.666      0.666      0.0001545 
   1   552   1     0     6     6  0.667      0.667      0.0001545 
   1   553   1     0     6     6  0.667      0.667      0.0001545 
   1   554   1     0     6     6  0.667      0.667      0.0001545 
   1   555   1     0     6     6  0.667      0.667      0.0001545 
   1   556   1     0     6     6  0.667      0.667      0.0001545 
   1   557   1     0     8     8  0.667      0.667      0.0001545 
   1   558   1     0     8     8  0.667      0.667      0.0001545 
   1   559   1U    0     1     1  0.667      0.667      0.0001545 
   1   559   2     0     3     3  0.668      0.668      3.863e-005
   1   560   1     0     4     4  0.668      0.668      3.863e-005
   1   561   1     0     4     4  0.668      0.668      5.795e-005
   1   562   1     0     4     4  0.668      0.668      8.693e-005
   1   563   1     0     6     6  0.668      0.668      0.0001304 
   1   564   1     0     4     4  0.668      0.668      0.0001304 
   1   565   1     0     6     6  0.668      0.668      0.0001304 
   1   566   1     0     4     4  0.668      0.668      0.0001304 
   1   567   1     0     6     6  0.668      0.668      0.0001304 
   1   568   1     0     4     4  0.668      0.668      0.0001304 
   1   569   1     0     6     6  0.669      0.669      0.0001304 
   1   570   1     0     4     4  0.669      0.669      0.0001304 
   1   571   1     0     6     6  0.669      0.669      0.0001304 
   1   572   1     0     4     4  0.669      0.669      0.0001304 
   1   573   1     0     4     4  0.669      0.669      0.0001304 
   1   574   1     0     6     6  0.669      0.669      0.0001956 
   1   575   1     0     6     6  0.670      0.670      0.0001956 
   1   576   1     0     6     6  0.670      0.670      0.0001956 
   1   577   1     0     6     6  0.670      0.670      0.0001956 
   1   578   1     0     6     6  0.670      0.670      0.0001956 
   1   579   1     0     6     6  0.670      0.670      0.0001956 
   1   580   1     0     6     6  0.670      0.670      0.0001956 
   1   581   1     0     6     6  0.671      0.671      0.0001956 
   1   582   1     0     6     6  0.671      0.671      0.0001956 
   1   583   1     0     6     6  0.671      0.671      0.0001956 
   1   584   1     0     6     6  0.671      0.671      0.0001956 
   1   585   1     0     6     6  0.671      0.671      0.0001956 
   1   586   1     0     6     6  0.672      0.672      0.0001956 
   1   587   1     0     6     6  0.672      0.672      0.0001956 
   1   588   1     0     6     6  0.672      0.672      0.0001956 
   1   589   1     0     6     6  0.672      0.672      0.0001956 
   1   590   1     0     6     6  0.672      0.672      0.0001956 
   1   591   1     0     6     6  0.673      0.673      0.0001956 
   1   592   1     0     6     6  0.673      0.673      0.0001956 
   1   593   1     0     6     6  0.673      0.673      0.0001956 
   1   594   1     0     6     6  0.673      0.673      0.0001956 
   1   595   1     0     6     6  0.673      0.673      0.0001956 
   1   596   1     0     4     4  0.674      0.674      0.0001956 
   1   597   1     0     6     6  0.674      0.674      0.0001956 
   1   598   1     0     4     4  0.674      0.674      0.0001956 
   1   599   1     0     6     6  0.674      0.674      0.0001956 
   1   600   1     0     4     4  0.674      0.674      0.0001956 
   1   601   1     0     6     6  0.675      0.675      0.0001956 
   1   602   1     0     4     4  0.675      0.675      0.0001956 
   1   603   1     0     6     6  0.675      0.675      0.0001956 
   1   604   1     0     6     6  0.675      0.675      0.0001956 
   1   605   1     0     6     6  0.675      0.675      0.0001956 
   1   606   1     0     6     6  0.676      0.676      0.0001956 
   1   607   1     0     6     6  0.676      0.676      0.0001956 
   1   608   1     0     6     6  0.676      0.676      0.0001956 
   1   609   1     0     6     6  0.676      0.676      0.0001956 
   1   610   1     0     6     6  0.676      0.676      0.0001956 
   1   611   1     0     6     6  0.677      0.677      0.0001956 
   1   612   1     0     6     6  0.677      0.677      0.0001956 
   1   613   1     0     6     6  0.677      0.677      0.0001956 
   1   614   1     0     6     6  0.677      0.677      0.0001956 
   1   615   1     0     6     6  0.677      0.677      0.0001956 
   1   616   1     0     6     6  0.678      0.678      0.0001956 
   1   617   1     0     6     6  0.678      0.678      0.0001956 
   1   618   1     0     6     6  0.678      0.678      0.0001956 
   1   619   1     0     6     6  0.678      0.678      0.0001956 
   1   620   1     0     6     6  0.678      0.678      0.0001956 
   1   621   1     0     6     6  0.679      0.679      0.0001956 
   1   622   1     0     6     6  0.679      0.679      0.0001956 
   1   623   1     0     6     6  0.679      0.679      0.0001956 
   1   624   1     0     4     4  0.679      0.679      0.0001956 
   1   625   1     0     6     6  0.679      0.679      0.0001956 
   1   626   1     0     6     6  0.679      0.679      0.0001956 
   1   627   1     0     4     4  0.680      0.680      0.0001956 
   1   628   1     0     6     6  0.680      0.680      0.0001956 
   1   629   1     0     4     4  0.680      0.680      0.0001956 
   1   630   1     0     6     6  0.680      0.680      0.0001956 
   1   631   1     0     4     4  0.680      0.680      0.0001956 
   1   632   1     0     6     6  0.681      0.681      0.0001956 
   1   633   1     0     4     4  0.681      0.681      0.0001956 
   1   634   1     0     6     6  0.681      0.681      0.0001956 
   1   635   1     0     4     4  0.681      0.681      0.0001956 
   1   636   1     0     6     6  0.681      0.681      0.0001956 
   1   637   1     0     4     4  0.682      0.682      0.0001956 
   1   638   1     0     4     4  0.682      0.682      0.0001956 
   1   639   1     0     6     6  0.682      0.682      0.0002934 
   1   640   1     0     6     6  0.682      0.682      0.0002934 
   1   641   1     0     6     6  0.683      0.683      0.0002934 
   1   642   1     0     6     6  0.683      0.683      0.0002934 
   1   643   1     0     6     6  0.683      0.683      0.0002934 
   1   644   1     0     6     6  0.684      0.684      0.0002934 
   1   645   1     0     6     6  0.684      0.684      0.0002934 
   1   646   1     0     6     6  0.684      0.684      0.0002934 
   1   647   1     0     6     6  0.684      0.684      0.0002934 
   1   648   1     0     6     6  0.685      0.685      0.0002934 
   1   649   1     0     6     6  0.685      0.685      0.0002934 
   1   650   1     0     6     6  0.685      0.685      0.0002934 
   1   651   1     0     6     6  0.686      0.686      0.0002934 
   1   652   1     0     6     6  0.686      0.686      0.0002934 
   1   653   1     0     6     6  0.686      0.686      0.0002934 
   1   654   1     0     6     6  0.687      0.687      0.0002934 
   1   655   1     0     6     6  0.687      0.687      0.0002934 
   1   656   1     0     6     6  0.687      0.687      0.0002934 
   1   657   1     0     6     6  0.687      0.687      0.0002934 
   1   658   1     0     6     6  0.688      0.688      0.0002934 
   1   659   1     0     6     6  0.688      0.688      0.0002934 
   1   660   1     0     6     6  0.688      0.688      0.0002934 
   1   661   1     0     6     6  0.689      0.689      0.0002934 
   1   662   1     0     6     6  0.689      0.689      0.0002934 
   1   663   1     0     6     6  0.689      0.689      0.0002934 
   1   664   1     0     6     6  0.689      0.689      0.0002934 
   1   665   1     0     6     6  0.690      0.690      0.0002934 
   1   666   1     0     6     6  0.690      0.690      0.0002934 
   1   667   1     0     6     6  0.690      0.690      0.0002934 
   1   668   1     0     6     6  0.691      0.691      0.0002934 
   1   669   1     0     6     6  0.691      0.691      0.0002934 
   1   670   1     0     6     6  0.691      0.691      0.0002934 
   1   671   1     0     6     6  0.692      0.692      0.0002934 
   1   672   1     0     6     6  0.692      0.692      0.0002934 
   1   673   1     0     6     6  0.692      0.692      0.0002934 
   1   674   1     0     6     6  0.692      0.692      0.0002934 
   1   675   1     0     6     6  0.693      0.693      0.0002934 
   1   676   1     0     6     6  0.693      0.693      0.0002934 
   1   677   1     0     6     6  0.693      0.693      0.0002934 
   1   678   1     0     6     6  0.694      0.694      0.0002934 
   1   679   1     0     6     6  0.694      0.694      0.0002934 
   1   680   1     0     6     6  0.694      0.694      0.0002934 
   1   681   1     0     5     5  0.694      0.694      0.0002934 
   1   682   1     0     5     5  0.695      0.695      0.0002934 
   1   683   1     0     6     6  0.695      0.695      0.0002934 
   1   684   1     0     6     6  0.695      0.695      0.0002934 
   1   685   1     0     6     6  0.696      0.696      0.0002934 
   1   686   1     0     6     6  0.696      0.696      0.0002934 
   1   687   1     0     6     6  0.696      0.696      0.0002934 
   1   688   1     0     6     6  0.697      0.697      0.0002934 
   1   689   1     0     6     6  0.697      0.697      0.0002934 
   1   690   1     0     6     6  0.697      0.697      0.0002934 
   1   691   1     0     7     7  0.697      0.697      0.0002934 
   1   692   1     0     7     7  0.698      0.698      0.0002934 
   1   693   1     0     7     7  0.698      0.698      0.0002934 
   1   694   1     0     7     7  0.698      0.698      0.0002934 
   1   695   1     0     7     7  0.699      0.699      0.0002934 
   1   696   1     0     6     6  0.699      0.699      0.0002934 
   1   697   1     0     6     6  0.699      0.699      0.0002934 
   1   698   1     0     6     6  0.699      0.699      0.0002934 
   1   699   1     0     6     6  0.700      0.700      0.0002934 
   1   700   1     0     6     6  0.700      0.700      0.0002718 
   1   701   1     0     6     6  0.700      0.700      0.0002934 
   1   702   1     0     6     6  0.701      0.701      0.0002934 
   1   703   1     0     6     6  0.701      0.701      0.0002934 
   1   704   1     0     6     6  0.701      0.701      0.0002934 
   1   705   1     0     6     6  0.701      0.701      0.0002934 
   1   706   1     0     6     6  0.702      0.702      0.0002934 
   1   707   1     0     6     6  0.702      0.702      0.0002934 
   1   708   1     0     6     6  0.702      0.702      0.0002934 
   1   709   1     0     6     6  0.703      0.703      0.0002934 
   1   710   1     0     7     7  0.703      0.703      0.0002934 
   1   711   1     0     6     6  0.703      0.703      0.0002934 
   1   712   1     0     7     7  0.704      0.704      0.0002934 
   1   713   1     0     7     7  0.704      0.704      0.0002934 
   1   714   1     0     8     8  0.704      0.704      0.0002934 
   1   715   1     0     8     8  0.704      0.704      0.0002934 
   1   716   1     0     8     8  0.705      0.705      0.0002934 
   1   717   1     0     7     7  0.705      0.705      0.0002934 
   1   718   1     0     7     7  0.705      0.705      0.0002934 
   1   719   1     0     8     8  0.706      0.706      0.0002934 
   1   720   1     0     8     8  0.706      0.706      0.0002934 
   1   721   1     0     8     8  0.706      0.706      0.0002934 
   1   722   1     0     8     8  0.706      0.706      0.0002934 
   1   723   1     0     7     7  0.707      0.707      0.0002934 
   1   724   1     0     7     7  0.707      0.707      0.0002934 
   1   725   1     0     7     7  0.707      0.707      0.0002934 
   1   726   1     0     6     6  0.708      0.708      0.0002934 
   1   727   1     0     6     6  0.708      0.708      0.0002934 
   1   728   1     0     6     6  0.708      0.708      0.0002934 
   1   729   1     0     7     7  0.709      0.709      0.0002934 
   1   730   1     0     7     7  0.709      0.709      0.0002934 
   1   731   1     0     7     7  0.709      0.709      0.0002934 
   1   732   1     0     7     7  0.709      0.709      0.0002934 
   1   733   1     0     7     7  0.710      0.710      0.0002934 
   1   734   1     0     7     7  0.710      0.710      0.0002934 
   1   735   1     0     7     7  0.710      0.710      0.0002934 
   1   736   1     0     7     7  0.711      0.711      0.0002934 
   1   737   1     0     6     6  0.711      0.711      0.0002934 
   1   738   1     0     6     6  0.711      0.711      0.0002934 
   1   739   1     0     6     6  0.711      0.711      0.0002934 
   1   740   1     0     6     6  0.712      0.712      0.0002934 
   1   741   1     0     6     6  0.712      0.712      0.0002934 
   1   742   1     0     6     6  0.712      0.712      0.0002934 
   1   743   1     0     6     6  0.713      0.713      0.0002934 
   1   744   1     0     6     6  0.713      0.713      0.0002934 
   1   745   1     0     7     7  0.713      0.713      0.0002934 
   1   746   1     0     7     7  0.713      0.713      0.0002934 
   1   747   1     0     7     7  0.714      0.714      0.0002934 
   1   748   1     0     7     7  0.714      0.714      0.0002934 
   1   749   1     0     7     7  0.714      0.714      0.0002934 
   1   750   1     0     7     7  0.715      0.715      0.0002934 
   1   751   1     0     7     7  0.715      0.715      0.0002934 
   1   752   1     0     7     7  0.715      0.715      0.0002934 
   1   753   1     0     7     7  0.716      0.716      0.0002934 
   1   754   1     0     7     7  0.716      0.716      0.0002934 
   1   755   1     0     8     8  0.716      0.716      0.0002934 
   1   756   1     0     8     8  0.716      0.716      0.0002934 
   1   757   1     0     8     8  0.717      0.717      0.0002934 
   1   758   1U    0     9     9  0.717      0.717      0.0002934 
   1   758   2     0     4     4  0.717      0.717      0.0001467 
   1   759   1     0     4     4  0.717      0.717      0.0001467 
   1   760   1     0     7     7  0.717      0.717      0.0002200 
   1   761   1     0     7     7  0.717      0.717      0.0002200 
   1   762   1     0     7     7  0.718      0.718      0.0002200 
   1   763   1     0     7     7  0.718      0.718      0.0002200 
   1   764   1     0     7     7  0.718      0.718      0.0002200 
   1   765   1     0     7     7  0.718      0.718      0.0002200 
   1   766   1     0     7     7  0.719      0.719      0.0002200 
   1   767   1     0     7     7  0.719      0.719      0.0002200 
   1   768   1     0     7     7  0.719      0.719      0.0002200 
   1   769   1U    0     3     3  0.719      0.719      0.0002200 
   1   769   2     0     3     3  0.719      0.719      5.501e-005
   1   770   1     0     3     3  0.719      0.719      5.501e-005
   1   771   1     0     4     4  0.719      0.719      8.251e-005
   1   772   1     0     4     4  0.719      0.719      0.0001238 
   1   773   1     0     6     6  0.719      0.719      0.0001857 
   1   774   1     0     6     6  0.720      0.720      0.0001857 
   1   775   1     0     6     6  0.720      0.720      0.0001857 
   1   776   1     0     6     6  0.720      0.720      0.0001857 
   1   777   1     0     6     6  0.720      0.720      0.0001857 
   1   778   1     0     6     6  0.720      0.720      0.0001857 
   1   779   1     0     6     6  0.721      0.721      0.0001857 
   1   780   1     0     7     7  0.721      0.721      0.0001857 
   1   781   1     0     7     7  0.721      0.721      0.0001857 
   1   782   1     0     7     7  0.721      0.721      0.0001857 
   1   783   1     0     7     7  0.721      0.721      0.0001857 
   1   784   1     0     8     8  0.722      0.722      0.0001857 
   1   785   1     0     5     5  0.722      0.722      0.0001857 
   1   786   1     0     5     5  0.722      0.722      0.0001857 
   1   787   1     0     5     5  0.722      0.722      0.0001857 
   1   788   1     0     5     5  0.722      0.722      0.0001857 
   1   789   1     0     5     5  0.722      0.722      0.0001857 
   1   790   1     0     5     5  0.723      0.723      0.0001857 
   1   791   1     0     5     5  0.723      0.723      0.0001857 
   1   792   1     0     5     5  0.723      0.723      0.0001857 
   1   793   1     0     5     5  0.723      0.723      0.0001857 
   1   794   1     0     5     5  0.723      0.723      0.0001857 
   1   795   1     0     5     5  0.724      0.724      0.0001857 
   1   796   1     0     5     5  0.724      0.724      0.0001857 
   1   797   1     0     5     5  0.724      0.724      0.0001857 
   1   798   1     0     5     5  0.724      0.724      0.0001857 
   1   799   1     0     5     5  0.724      0.724      0.0001857 
   1   800   1     0     5     5  0.725      0.725      0.0001857 
   1   801   1     0     5     5  0.725      0.725      0.0001857 
   1   802   1     0     5     5  0.725      0.725      0.0001857 
   1   803   1     0     5     5  0.725      0.725      0.0001857 
   1   804   1     0     5     5  0.725      0.725      0.0001857 
   1   805   1     0     5     5  0.725      0.725      0.0001857 
   1   806   1     0     5     5  0.726      0.726      0.0001857 
   1   807   1     0     5     5  0.726      0.726      0.0001857 
   1   808   1     0     5     5  0.726      0.726      0.0001857 
   1   809   1     0     5     5  0.726      0.726      0.0001857 
   1   810   1     0     5     5  0.726      0.726      0.0001857 
   1   811   1     0     5     5  0.727      0.727      0.0001857 
   1   812   1     0     5     5  0.727      0.727      0.0001857 
   1   813   1     0     5     5  0.727      0.727      0.0001857 
   1   814   1     0     5     5  0.727      0.727      0.0001857 
   1   815   1     0     5     5  0.727      0.727      0.0001857 
   1   816   1     0     5     5  0.727      0.727      0.0001857 
   1   817   1     0     5     5  0.728      0.728      0.0001857 
   1   818   1     0     5     5  0.728      0.728      0.0001857 
   1   819   1     0     5     5  0.728      0.728      0.0001857 
   1   820   1     0     5     5  0.728      0.728      0.0001857 
   1   821   1     0     5     5  0.728      0.728      0.0001857 
   1   822   1     0     5     5  0.729      0.729      0.0001857 
   1   823   1     0     5     5  0.729      0.729      0.0001857 
   1   824   1     0     5     5  0.729      0.729      0.0001857 
   1   825   1     0     5     5  0.729      0.729      0.0001857 
   1   826   1     0     5     5  0.729      0.729      0.0001857 
   1   827   1     0     5     5  0.730      0.730      0.0001857 
   1   828   1     0     5     5  0.730      0.730      0.0001857 
   1   829   1     0     5     5  0.730      0.730      0.0001857 
   1   830   1     0     5     5  0.730      0.730      0.0001857 
   1   831   1     0     6     6  0.730      0.730      0.0001857 
   1   832   1     0     6     6  0.730      0.730      0.0001857 
   1   833   1     0     6     6  0.731      0.731      0.0001857 
   1   834   1     0     6     6  0.731      0.731      0.0001857 
   1   835   1     0     6     6  0.731      0.731      0.0001857 
   1   836   1     0     6     6  0.731      0.731      0.0001857 
   1   837   1     0     6     6  0.731      0.731      0.0001857 
   1   838   1     0     6     6  0.732      0.732      0.0001857 
   1   839   1     0     6     6  0.732      0.732      0.0001857 
   1   840   1     0     6     6  0.732      0.732      0.0001857 
   1   841   1     0     7     7  0.732      0.732      0.0001857 
   1   842   1     0     7     7  0.732      0.732      0.0001857 
   1   843   1     0     7     7  0.732      0.732      0.0001857 
   1   844   1U    0     8     8  0.732      0.732      0.0001857 
   1   844   2     0     3     3  0.733      0.733      4.641e-005
   1   845   1     0     3     3  0.733      0.733      4.641e-005
   1   846   1     0     4     4  0.733      0.733      6.962e-005
   1   847   1     0     5     5  0.733      0.733      0.0001044 
   1   848   1     0     6     6  0.733      0.733      0.0001044 
   1   849   1     0     6     6  0.733      0.733      0.0001044 
   1   850   1     0     6     6  0.733      0.733      0.0001044 
   1   851   1     0     6     6  0.733      0.733      0.0001044 
   1   852   1     0     5     5  0.733      0.733      0.0001044 
   1   853   1     0     5     5  0.733      0.733      0.0001044 
   1   854   1     0     5     5  0.733      0.733      0.0001044 
   1   855   1     0     6     6  0.734      0.734      0.0001044 
   1   856   1     0     6     6  0.734      0.734      0.0001044 
   1   857   1     0     6     6  0.734      0.734      0.0001044 
   1   858   1     0     6     6  0.734      0.734      0.0001044 
   1   859   1     0     6     6  0.734      0.734      0.0001044 
   1   860   1     0     6     6  0.734      0.734      0.0001044 
   1   861   1     0     6     6  0.734      0.734      0.0001044 
   1   862   1     0     7     7  0.734      0.734      0.0001044 
   1   863   1     0     8     8  0.734      0.734      0.0001044 
   1   864   1     0     9     9  0.735      0.735      0.0001044 
   1   865   1     0     6     6  0.735      0.735      0.0001044 
   1   866   1     0     4     4  0.735      0.735      0.0001044 
   1   867   1     0     5     5  0.735      0.735      0.0001044 
   1   868   1     0     4     4  0.735      0.735      0.0001044 
   1   869   1     0     5     5  0.735      0.735      0.0001044 
   1   870   1     0     4     4  0.735      0.735      0.0001044 
   1   871   1     0     5     5  0.735      0.735      0.0001044 
   1   872   1     0     4     4  0.735      0.735      0.0001044 
   1   873   1     0     5     5  0.735      0.735      0.0001044 
   1   874   1     0     4     4  0.736      0.736      0.0001044 
   1   875   1     0     5     5  0.736      0.736      0.0001044 
   1   876   1     0     4     4  0.736      0.736      0.0001044 
   1   877   1     0     4     4  0.736      0.736      0.0001044 
   1   878   1     0     4     4  0.736      0.736      0.0001566 
   1   879   1     0     6     6  0.736      0.736      0.0002350 
   1   880   1     0     6     6  0.737      0.737      0.0002350 
   1   881   1     0     6     6  0.737      0.737      0.0002350 
   1   882   1     0     6     6  0.737      0.737      0.0002350 
   1   883   1     0     6     6  0.737      0.737      0.0002350 
   1   884   1     0     6     6  0.737      0.737      0.0002350 
   1   885   1     0     7     7  0.738      0.738      0.0002350 
   1   886   1     0     7     7  0.738      0.738      0.0002350 
   1   887   1     0     7     7  0.738      0.738      0.0002350 
   1   888   1     0     7     7  0.738      0.738      0.0002350 
   1   889   1     0     7     7  0.739      0.739      0.0002350 
   1   890   1     0     7     7  0.739      0.739      0.0002350 
   1   891   1     0     7     7  0.739      0.739      0.0002350 
   1   892   1     0     7     7  0.739      0.739      0.0002350 
   1   893   1     0     7     7  0.740      0.740      0.0002350 
   1   894   1     0     7     7  0.740      0.740      0.0002350 
   1   895   1     0     7     7  0.740      0.740      0.0002350 
   1   896   1     0     7     7  0.740      0.740      0.0002350 
   1   897   1U    0     9     9  0.740      0.740      0.0002350 
   1   897   2     0     3     3  0.740      0.740      5.874e-005
   1   898   1     0     3     3  0.740      0.740      5.874e-005
   1   899   1     0     6     6  0.740      0.740      8.811e-005
   1   900   1     0     6     6  0.741      0.741      8.811e-005
   1   901   1     0     6     6  0.741      0.741      8.811e-005
   1   902   1     0     6     6  0.741      0.741      8.811e-005
   1   903   1     0     6     6  0.741      0.741      8.811e-005
   1   904   1     0     6     6  0.741      0.741      8.811e-005
   1   905   1     0     6     6  0.741      0.741      8.811e-005
   1   906   1     0     6     6  0.741      0.741      8.811e-005
   1   907   1     0     6     6  0.741      0.741      8.811e-005
   1   908   1     0     6     6  0.741      0.741      8.811e-005
   1   909   1     0     6     6  0.741      0.741      8.811e-005
   1   910   1     0     6     6  0.741      0.741      8.811e-005
   1   911   1     0     6     6  0.742      0.742      8.811e-005
   1   912   1     0     6     6  0.742      0.742      8.811e-005
   1   913   1     0     6     6  0.742      0.742      8.811e-005
   1   914   1     0     6     6  0.742      0.742      8.811e-005
   1   915   1     0     6     6  0.742      0.742      8.811e-005
   1   916   1     0     6     6  0.742      0.742      8.811e-005
   1   917   1     0     6     6  0.742      0.742      8.811e-005
   1   918   1     0     6     6  0.742      0.742      8.811e-005
   1   919   1     0     6     6  0.742      0.742      8.811e-005
   1   920   1     0     6     6  0.742      0.742      8.811e-005
   1   921   1     0     6     6  0.742      0.742      8.811e-005
   1   922   1     0     6     6  0.743      0.743      8.811e-005
   1   923   1     0     6     6  0.743      0.743      8.811e-005
   1   924   1     0     6     6  0.743      0.743      8.811e-005
   1   925   1     0     6     6  0.743      0.743      8.811e-005
   1   926   1     0     6     6  0.743      0.743      8.811e-005
   1   927   1     0     6     6  0.743      0.743      8.811e-005
   1   928   1     0     6     6  0.743      0.743      8.811e-005
   1   929   1     0     6     6  0.743      0.743      8.811e-005
   1   930   1     0     6     6  0.743      0.743      8.811e-005
   1   931   1     0     6     6  0.743      0.743      8.811e-005
   1   932   1     0     6     6  0.743      0.743      8.811e-005
   1   933   1     0     6     6  0.743      0.743      8.811e-005
   1   934   1     0     6     6  0.744      0.744      8.811e-005
   1   935   1     0     6     6  0.744      0.744      8.811e-005
   1   936   1     0     6     6  0.744      0.744      8.811e-005
   1   937   1     0     6     6  0.744      0.744      8.811e-005
   1   938   1     0     6     6  0.744      0.744      8.811e-005
   1   939   1     0     6     6  0.744      0.744      8.811e-005
   1   940   1     0     6     6  0.744      0.744      8.811e-005
   1   941   1     0     6     6  0.744      0.744      8.811e-005
   1   942   1     0     6     6  0.744      0.744      8.811e-005
   1   943   1     0     6     6  0.744      0.744      8.811e-005
   1   944   1     0     6     6  0.744      0.744      8.811e-005
   1   945   1     0     6     6  0.745      0.745      8.811e-005
   1   946   1     0     6     6  0.745      0.745      8.811e-005
   1   947   1     0     6     6  0.745      0.745      8.811e-005
   1   948   1     0     6     6  0.745      0.745      8.811e-005
   1   949   1     0     6     6  0.745      0.745      8.811e-005
   1   950   1     0     6     6  0.745      0.745      8.811e-005
   1   951   1     0     6     6  0.745      0.745      8.811e-005
   1   952   1     0     6     6  0.745      0.745      8.811e-005
   1   953   1     0     6     6  0.745      0.745      8.811e-005
   1   954   1     0     6     6  0.745      0.745      8.811e-005
   1   955   1     0     6     6  0.745      0.745      8.811e-005
   1   956   1     0     6     6  0.746      0.746      8.811e-005
   1   957   1     0     6     6  0.746      0.746      8.811e-005
   1   958   1     0     6     6  0.746      0.746      8.811e-005
   1   959   1     0     6     6  0.746      0.746      8.811e-005
   1   960   1     0     6     6  0.746      0.746      8.811e-005
   1   961   1     0     6     6  0.746      0.746      8.811e-005
   1   962   1     0     6     6  0.746      0.746      8.811e-005
   1   963   1     0     6     6  0.746      0.746      8.811e-005
   1   964   1     0     6     6  0.746      0.746      8.811e-005
   1   965   1     0     6     6  0.746      0.746      8.811e-005
   1   966   1     0     6     6  0.746      0.746      8.811e-005
   1   967   1     0     6     6  0.746      0.746      8.811e-005
   1   968   1     0     6     6  0.747      0.747      8.811e-005
   1   969   1     0     6     6  0.747      0.747      8.811e-005
   1   970   1     0     6     6  0.747      0.747      8.811e-005
   1   971   1     0     6     6  0.747      0.747      8.811e-005
   1   972   1     0     6     6  0.747      0.747      8.811e-005
   1   973   1     0     6     6  0.747      0.747      8.811e-005
   1   974   1     0     6     6  0.747      0.747      8.811e-005
   1   975   1     0     6     6  0.747      0.747      8.811e-005
   1   976   1     0     6     6  0.747      0.747      8.811e-005
   1   977   1     0     6     6  0.747      0.747      8.811e-005
   1   978   1     0     6     6  0.747      0.747      8.811e-005
   1   979   1     0     6     6  0.748      0.748      8.811e-005
   1   980   1     0     6     6  0.748      0.748      8.811e-005
   1   981   1     0     6     6  0.748      0.748      8.811e-005
   1   982   1     0     6     6  0.748      0.748      8.811e-005
   1   983   1     0     6     6  0.748      0.748      8.811e-005
   1   984   1     0     6     6  0.748      0.748      8.811e-005
   1   985   1     0     6     6  0.748      0.748      8.811e-005
   1   986   1     0     6     6  0.748      0.748      8.811e-005
   1   987   1     0     6     6  0.748      0.748      8.811e-005
   1   988   1     0     6     6  0.748      0.748      8.811e-005
   1   989   1     0     6     6  0.748      0.748      8.811e-005
   1   990   1     0     6     6  0.749      0.749      8.811e-005
   1   991   1     0     6     6  0.749      0.749      8.811e-005
   1   992   1     0     6     6  0.749      0.749      8.811e-005
   1   993   1     0     6     6  0.749      0.749      8.811e-005
   1   994   1     0     6     6  0.749      0.749      8.811e-005
   1   995   1     0     6     6  0.749      0.749      8.811e-005
   1   996   1     0     6     6  0.749      0.749      8.811e-005
   1   997   1     0     6     6  0.749      0.749      8.811e-005
   1   998   1     0     6     6  0.749      0.749      8.811e-005
   1   999   1     0     6     6  0.749      0.749      8.811e-005
   1  1000   1     0     6     6  0.749      0.749      8.811e-005
                          
 THE ANALYSIS HAS NOT BEEN COMPLETED
