 Abaqus/Standard 6.14-4                  DATE 06-Oct-2017 TIME 19:17:17
 SUMMARY OF JOB INFORMATION:
 STEP  INC ATT SEVERE EQUIL TOTAL  TOTAL      STEP       INC OF       DOF    IF
               DISCON ITERS ITERS  TIME/    TIME/LPF    TIME/LPF    MONITOR RIKS
               ITERS               FREQ
   1     1   1     0     2     2  0.00100    0.00100    0.001000  
   1     2   1     0     3     3  0.00200    0.00200    0.001000  
   1     3   1     0     3     3  0.00350    0.00350    0.001500  
   1     4   1     0     5     5  0.00575    0.00575    0.002250  
   1     5   1     0     2     2  0.00800    0.00800    0.002250  
   1     6   1     0     1     1  0.0103     0.0103     0.002250  
   1     7   1     0     1     1  0.0136     0.0136     0.003375  
   1     8   1     0     1     1  0.0187     0.0187     0.005063  
   1     9   1     0     1     1  0.0263     0.0263     0.007594  
   1    10   1     0     1     1  0.0377     0.0377     0.01139   
   1    11   1     0     1     1  0.0500     0.0500     0.01233   
   1    12   1     0     1     1  0.0685     0.0685     0.01849   
   1    13   1     0     1     1  0.100      0.100      0.03151   
   1    14   1     0     6     6  0.150      0.150      0.05000   
   1    15   1U    0     4     4  0.150      0.150      0.05000   
   1    15   2     0     4     4  0.163      0.163      0.01250   
   1    16   1U    0     4     4  0.163      0.163      0.01250   
   1    16   2     0     2     2  0.166      0.166      0.003125  
   1    17   1     0     3     3  0.170      0.170      0.004688  
   1    18   1     0     2     2  0.177      0.177      0.007031  
   1    19   1     0     1     1  0.188      0.188      0.01055   
   1    20   1     0     5     5  0.200      0.200      0.01211   
   1    21   1     0     6     6  0.212      0.212      0.01211   
   1    22   1     0     6     6  0.224      0.224      0.01211   
   1    23   1     0    10    10  0.236      0.236      0.01211   
   1    24   1U    0     6     6  0.236      0.236      0.01367   
   1    24   2     0     5     5  0.240      0.240      0.003418  
   1    25   1     0     2     2  0.243      0.243      0.003418  
   1    26   1     0     3     3  0.247      0.247      0.003418  
   1    27   1     0     7     7  0.250      0.250      0.003418  
   1    28   1     0     6     6  0.253      0.253      0.003418  
   1    29   1     0     4     4  0.257      0.257      0.003418  
   1    30   1     0     3     3  0.260      0.260      0.003418  
   1    31   1     0     5     5  0.265      0.265      0.005127  
   1    32   1     0     6     6  0.271      0.271      0.005127  
   1    33   1     0     6     6  0.276      0.276      0.005127  
   1    34   1     0     7     7  0.281      0.281      0.005127  
   1    35   1     0     5     5  0.286      0.286      0.005127  
   1    36   1     0     4     4  0.291      0.291      0.005127  
   1    37   1     0     4     4  0.296      0.296      0.005127  
   1    38   1     0     4     4  0.300      0.300      0.003857  
   1    39   1     0     7     7  0.308      0.308      0.007690  
   1    40   1     0     7     7  0.315      0.315      0.007690  
   1    41   1     0     5     5  0.323      0.323      0.007690  
   1    42   1     0     6     6  0.331      0.331      0.007690  
   1    43   1     0     8     8  0.338      0.338      0.007690  
   1    44   1     0     6     6  0.346      0.346      0.007690  
   1    45   1     0     4     4  0.350      0.350      0.003857  
   1    46   1     0     7     7  0.358      0.358      0.007690  
   1    47   1     0     6     6  0.365      0.365      0.007690  
   1    48   1     0     6     6  0.373      0.373      0.007690  
   1    49   1     0     6     6  0.381      0.381      0.007690  
   1    50   1     0     7     7  0.388      0.388      0.007690  
   1    51   1     0     6     6  0.396      0.396      0.007690  
   1    52   1     0     4     4  0.400      0.400      0.003857  
   1    53   1U    0     5     5  0.400      0.400      0.007690  
   1    53   2     0     2     2  0.402      0.402      0.001923  
   1    54   1     0     3     3  0.405      0.405      0.002884  
   1    55   1     0     3     3  0.409      0.409      0.004326  
   1    56   1     0     3     3  0.416      0.416      0.006489  
   1    57   1     0     8     8  0.425      0.425      0.009733  
   1    58   1     0     7     7  0.435      0.435      0.009733  
   1    59   1     0     6     6  0.445      0.445      0.009733  
   1    60   1     0     4     4  0.450      0.450      0.005179  
   1    61   1     0     4     4  0.460      0.460      0.009733  
   1    62   1     0     8     8  0.474      0.474      0.01460   
   1    63   1     0     8     8  0.489      0.489      0.01460   
   1    64   1     0     6     6  0.500      0.500      0.01107   
   1    65   1     0     6     6  0.515      0.515      0.01460   
   1    66   1     0     9     9  0.529      0.529      0.01460   
   1    67   1     0     9     9  0.544      0.544      0.01460   
   1    68   1     0     9     9  0.550      0.550      0.006201  
   1    69   1     0    10    10  0.565      0.565      0.01460   
   1    70   1U    0     3     3  0.565      0.565      0.01460   
   1    70   2     0     6     6  0.568      0.568      0.003650  
   1    71   1     0     5     5  0.572      0.572      0.003650  
   1    72   1     0     5     5  0.576      0.576      0.003650  
   1    73   1     0     7     7  0.579      0.579      0.003650  
   1    74   1     0     8     8  0.583      0.583      0.003650  
   1    75   1     0     6     6  0.586      0.586      0.003650  
   1    76   1U    0     3     3  0.586      0.586      0.003650  
   1    76   2     0     3     3  0.587      0.587      0.0009125 
   1    77   1     0     3     3  0.588      0.588      0.0009125 
   1    78   1     0     5     5  0.590      0.590      0.001369  
   1    79   1     0     5     5  0.591      0.591      0.001369  
   1    80   1     0     5     5  0.592      0.592      0.001369  
   1    81   1U    0    10    10  0.592      0.592      0.001369  
   1    81   2U    0     5     5  0.592      0.592      0.0006844 
   1    81   3     0     2     2  0.593      0.593      0.0001711 
   1    82   1     0     4     4  0.593      0.593      0.0001711 
   1    83   1     0     5     5  0.593      0.593      0.0002566 
   1    84   1     0     6     6  0.593      0.593      0.0002566 
   1    85   1U    0     4     4  0.593      0.593      0.0002566 
   1    85   2     0     2     2  0.593      0.593      6.416e-005
   1    86   1     0     4     4  0.593      0.593      6.416e-005
   1    87   1U    0     7     7  0.593      0.593      9.624e-005
   1    87   2     0     3     3  0.593      0.593      2.406e-005
   1    88   1     0     7     7  0.593      0.593      3.609e-005
   1    89   1     0    13    13  0.594      0.594      3.609e-005
   1    90   1     0     2     2  0.594      0.594      2.707e-005
   1    91   1     0     2     2  0.594      0.594      2.707e-005
   1    92   1     0     2     2  0.594      0.594      4.060e-005
   1    93   1     0     2     2  0.594      0.594      6.090e-005
   1    94   1     0     3     3  0.594      0.594      9.135e-005
   1    95   1     0     3     3  0.594      0.594      0.0001370 
   1    96   1     0     4     4  0.594      0.594      0.0002055 
   1    97   1     0     8     8  0.594      0.594      0.0003083 
   1    98   1     0     4     4  0.595      0.595      0.0003083 
   1    99   1     0     5     5  0.595      0.595      0.0003083 
   1   100   1     0     6     6  0.595      0.595      0.0003083 
   1   101   1     0     6     6  0.596      0.596      0.0003083 
   1   102   1     0     6     6  0.596      0.596      0.0003083 
   1   103   1     0     7     7  0.596      0.596      0.0003083 
   1   104   1     0     4     4  0.597      0.597      0.0003083 
   1   105   1     0     7     7  0.597      0.597      0.0003083 
   1   106   1     0     5     5  0.597      0.597      0.0003083 
   1   107   1     0     4     4  0.597      0.597      0.0003083 
   1   108   1     0     4     4  0.598      0.598      0.0003083 
   1   109   1     0     4     4  0.598      0.598      0.0004625 
   1   110   1     0    10    10  0.599      0.599      0.0006937 
   1   111   1     0     5     5  0.600      0.600      0.0006937 
   1   112   1     0     5     5  0.600      0.600      0.0003501 
   1   113   1     0     6     6  0.601      0.601      0.0006937 
   1   114   1     0     3     3  0.601      0.601      0.0006937 
   1   115   1     0     3     3  0.602      0.602      0.0006937 
   1   116   1     0     3     3  0.603      0.603      0.001041  
   1   117   1     0     3     3  0.605      0.605      0.001561  
   1   118   1     0     3     3  0.607      0.607      0.002341  
   1   119   1     0     3     3  0.611      0.611      0.003512  
   1   120   1     0     6     6  0.616      0.616      0.005268  
   1   121   1     0     6     6  0.621      0.621      0.005268  
   1   122   1     0     5     5  0.626      0.626      0.005268  
   1   123   1     0     6     6  0.632      0.632      0.005268  
   1   124   1     0     5     5  0.637      0.637      0.005268  
   1   125   1     0     4     4  0.642      0.642      0.005268  
   1   126   1     0     3     3  0.647      0.647      0.005268  
   1   127   1     0     4     4  0.650      0.650      0.002590  
   1   128   1     0     7     7  0.658      0.658      0.007902  
   1   129   1U    0     2     2  0.658      0.658      0.007902  
   1   129   2     0     4     4  0.660      0.660      0.001975  
   1   130   1     0     5     5  0.662      0.662      0.001975  
   1   131   1     0     9     9  0.664      0.664      0.001975  
   1   132   1     0     6     6  0.666      0.666      0.001975  
   1   133   1     0     6     6  0.668      0.668      0.001975  
   1   134   1     0     6     6  0.670      0.670      0.001975  
   1   135   1U    0     5     5  0.670      0.670      0.001975  
   1   135   2     0     3     3  0.670      0.670      0.0004939 
   1   136   1     0     3     3  0.671      0.671      0.0004939 
   1   137   1     0     3     3  0.671      0.671      0.0007408 
   1   138   1     0     7     7  0.673      0.673      0.001111  
   1   139   1U    0     2     2  0.673      0.673      0.001111  
   1   139   2     0     3     3  0.673      0.673      0.0002778 
   1   140   1     0     4     4  0.673      0.673      0.0002778 
   1   141   1     0     5     5  0.674      0.674      0.0004167 
   1   142   1     0     3     3  0.674      0.674      0.0004167 
   1   143   1     0     7     7  0.674      0.674      0.0004167 
   1   144   1     0     6     6  0.675      0.675      0.0004167 
   1   145   1     0     4     4  0.675      0.675      0.0004167 
   1   146   1     0     3     3  0.676      0.676      0.0004167 
   1   147   1     0     3     3  0.676      0.676      0.0006250 
   1   148   1     0     3     3  0.677      0.677      0.0009376 
   1   149   1     0     3     3  0.679      0.679      0.001406  
   1   150   1     0     6     6  0.681      0.681      0.002110  
   1   151   1     0     9     9  0.683      0.683      0.002110  
   1   152   1U    0     9     9  0.683      0.683      0.002110  
   1   152   2U    0     4     4  0.683      0.683      0.001055  
   1   152   3     0     3     3  0.683      0.683      0.0002637 
   1   153   1     0     3     3  0.683      0.683      0.0002637 
   1   154   1     0     3     3  0.684      0.684      0.0003955 
   1   155   1     0     4     4  0.684      0.684      0.0005933 
   1   156   1     0     4     4  0.685      0.685      0.0008899 
   1   157   1     0     4     4  0.687      0.687      0.001335  
   1   158   1     0     3     3  0.689      0.689      0.002002  
   1   159   1     0     3     3  0.692      0.692      0.003004  
   1   160   1     0     2     2  0.696      0.696      0.004505  
   1   161   1     0     1     1  0.700      0.700      0.003910  
   1   162   1     0     3     3  0.707      0.707      0.006758  
   1   163   1     0     3     3  0.717      0.717      0.01014   
   1   164   1     0     3     3  0.732      0.732      0.01521   
   1   165   1     0     4     4  0.750      0.750      0.01790   
   1   166   1     0     5     5  0.777      0.777      0.02685   
   1   167   1     0    10    10  0.800      0.800      0.02315   
   1   168   1     0    10    10  0.827      0.827      0.02685   
   1   169   1     0    10    10  0.850      0.850      0.02315   
   1   170   1     0     4     4  0.877      0.877      0.02685   
   1   171   1     0     2     2  0.900      0.900      0.02315   
   1   172   1     0     3     3  0.927      0.927      0.02685   
   1   173   1     0     8     8  0.950      0.950      0.02315   
   1   174   1     0     8     8  0.990      0.990      0.04027   
   1   175   1     0     5     5  1.00       1.00       0.009726  
                          
 THE ANALYSIS HAS COMPLETED SUCCESSFULLY
